version 3
run BreakRanksNoGui-93-20240710-15:11:16-258995
attr configname BreakRanksNoGui
attr datetime 20240710-15:11:16
attr datetimef 20240710-151116
attr experiment BreakRanksNoGui
attr inifile omnetpp.ini
attr iterationvars "$nCars=3, $platoonSize=3, $nLanes=1, $ploegH=0.5, $controller=1, $headway=0.1, $leaderHeadway=1.2, $leaderSpeed=110, $breakRanksSafetyDistance=3, $minSpeed=100, $maxSpeed=120, $beaconInterval=0.1, $priority=4, $packetSize=200, $sController=\"CACC\", $0=2, $1=0"
attr iterationvarsd nCars=3/platoonSize=3/nLanes=1/ploegH=0.5/controller=1/headway=0.1/leaderHeadway=1.2/leaderSpeed=110/breakRanksSafetyDistance=3/minSpeed=100/maxSpeed=120/beaconInterval=0.1/priority=4/packetSize=200/sController=CACC/2/0
attr iterationvarsf nCars=3,platoonSize=3,nLanes=1,ploegH=0.5,controller=1,headway=0.1,leaderHeadway=1.2,leaderSpeed=110,breakRanksSafetyDistance=3,minSpeed=100,maxSpeed=120,beaconInterval=0.1,priority=4,packetSize=200,sController=CACC,2,0-
attr measurement "$nCars=3, $platoonSize=3, $nLanes=1, $ploegH=0.5, $controller=1, $headway=0.1, $leaderHeadway=1.2, $leaderSpeed=110, $breakRanksSafetyDistance=3, $minSpeed=100, $maxSpeed=120, $beaconInterval=0.1, $priority=4, $packetSize=200, $sController=\"CACC\", $0=2, $1=0"
attr network Highway
attr processid 258995
attr repetition 3
attr replication #3
attr resultdir results
attr runnumber 93
attr seedset 3
itervar beaconInterval 0.1
itervar breakRanksSafetyDistance 3
itervar controller 1
itervar headway 0.1
itervar leaderHeadway 1.2
itervar leaderSpeed 110
itervar maxSpeed 120
itervar minSpeed 100
itervar nCars 3
itervar nLanes 1
itervar packetSize 200
itervar platoonSize 3
itervar ploegH 0.5
itervar priority 4
itervar sController "\"CACC\""
config image-path ../../../veins/images
config repeat 10
config extends BreakRanks
config *.manager.command "\"sumo\""
config *.manager.ignoreGuiCommands true
config output-vector-file "results/BreakRanks_1_0.1_110_3_3 /result_3.vec"
config output-scalar-file "results/BreakRanks_1_0.1_110_3_3 /result_3.sca"
config extends Platooning
config *.node[*].scenario_type "\"BreakRanksScenario\""
config *.manager.command "\"sumo-gui\""
config *.node[*].scenario_type "\"SimpleScenario\""
config cmdenv-express-mode true
config cmdenv-autoflush true
config cmdenv-status-frequency 15s
config num-rngs 6
config network Highway
config debug-on-errors true
config print-undisposed true
config *.playgroundSizeX 65000m
config *.playgroundSizeY 25000m
config *.playgroundSizeZ 50m
config sim-time-limit "100 s"
config *.annotations.draw false
config *.obstacles.debug false
config *.world.useTorus false
config *.world.use2D false
config *.manager.updateInterval 0.01s
config *.manager.host "\"localhost\""
config *.manager.moduleType "\"org.car2x.plexe.PlatoonCar\""
config *.manager.moduleName "\"node\""
config *.manager.moduleDisplayString "\"\""
config *.manager.autoShutdown true
config *.manager.margin 25
config *.connectionManager.sendDirect true
config *.connectionManager.maxInterfDist 2600m
config *.connectionManager.drawMaxIntfDist false
config *.**.nic.mac1609_4.useServiceChannel false
config *.**.nic.mac1609_4.txPower 100mW
config *.**.nic.mac1609_4.bitrate 6Mbps
config *.**.nic.mac1609_4.useAcks true
config *.**.nic.mac1609_4.ackErrorRate 0.0
config *.**.nic.mac1609_4.frameErrorRate 0.0
config *.**.nic.phy80211p.minPowerLevel -94dBm
config *.**.nic.phy80211p.maxTXPower 100mW
config *.**.nic.phy80211p.useNoiseFloor true
config *.**.nic.phy80211p.noiseFloor -95dBm
config *.**.nic.phy80211p.decider "xmldoc(\"config.xml\")"
config *.**.nic.phy80211p.analogueModels "xmldoc(\"config.xml\")"
config *.**.nic.phy80211p.usePropagationDelay true
config *.node[*].mobility.x 0
config *.node[*].mobility.y 0
config *.node[*].mobility.z 1.895
config seed-set 3
config **.seed 3
config *.node[*].prot.rng-0 2
config *.node[*].appl.rng-0 3
config *.node[*].scenario.rng-0 4
config **.traffic.rng-0 5
config *.manager.configFile "\"./sumocfg/freeway.sumo.cfg\""
config *.manager.launchConfig "xmldoc(\"./sumocfg/freeway.launchd.xml\")"
config **.numberOfCars 3
config **.numberOfCarsPerPlatoon 3
config **.numberOfLanes 1
config *.node[*].helper_type "\"PositionHelper\""
config *.node[*].scenario.caccC1 0.5
config *.node[*].scenario.caccXi 1
config *.node[*].scenario.caccOmegaN "0.2 Hz"
config *.node[*].scenario.caccSpacing "2 m"
config *.node[*].scenario.engineTau "0.5 s"
config *.node[*].scenario.ploegH 0.5s
config *.node[*].scenario.ploegKp 0.2
config *.node[*].scenario.ploegKd 0.7
config *.node[*].scenario.useRealisticEngine false
config *.node[*].scenario.useControllerAcceleration true
config *.node[*].scenario.nLanes 1
config **.numericController 1
config **.headway 0.1s
config *.node[*].scenario.accHeadway 0.1s
config *.node[*].scenario.leaderHeadway 1.2s
config *.node[*].scenario.leaderSpeed 110kmph
config *.node[*].appl_type "\"SimplePlatooningApp\""
config *.node[*].appl.*.scalar-recording true
config *.node[*].appl.*.vector-recording true
config *.node[0].appl.breakRanksSafetyDistance 3m
config *.node[*].appl.minSpeed 100kmph
config *.node[*].appl.maxSpeed 120kmph
config *.node[*].protocol_type "\"SimplePlatooningBeaconing\""
config *.node[*].prot.*.scalar-recording true
config *.node[*].prot.*.vector-recording true
config *.node[*].prot.beaconingInterval 0.1s
config *.node[*].prot.priority 4
config *.node[*].prot.packetSize 200
config **.traffic_type "\"PlatoonsTrafficManager\""
config **.traffic.platoonInsertTime "1 s"
config **.traffic.platoonInsertSpeed 110kmph
config **.traffic.nCars 3
config **.traffic.platoonSize 3
config **.traffic.nLanes 1
config **.traffic.platooningVType "\"vtypeauto\""
config **.traffic.controller "\"CACC\""
config **.traffic.platoonInsertDistance 2m
config **.traffic.platoonInsertHeadway 0s
config **.traffic.platoonLeaderHeadway 1.2s
config **.scalar-recording false
config **.vector-recording false

vector 0 Highway.node[0].appl distance ETV
vector 1 Highway.node[0].appl relativeSpeed ETV
vector 2 Highway.node[0].appl nodeId ETV
vector 3 Highway.node[0].appl acceleration ETV
vector 4 Highway.node[0].appl controllerAcceleration ETV
vector 5 Highway.node[0].appl speed ETV
vector 6 Highway.node[0].appl posx ETV
vector 7 Highway.node[0].appl posy ETV
vector 8 Highway.node[1].appl distance ETV
vector 9 Highway.node[1].appl relativeSpeed ETV
vector 10 Highway.node[1].appl nodeId ETV
vector 11 Highway.node[1].appl acceleration ETV
vector 12 Highway.node[1].appl controllerAcceleration ETV
vector 13 Highway.node[1].appl speed ETV
vector 14 Highway.node[1].appl posx ETV
vector 15 Highway.node[1].appl posy ETV
vector 16 Highway.node[2].appl distance ETV
vector 17 Highway.node[2].appl relativeSpeed ETV
vector 18 Highway.node[2].appl nodeId ETV
vector 19 Highway.node[2].appl acceleration ETV
vector 20 Highway.node[2].appl controllerAcceleration ETV
vector 21 Highway.node[2].appl speed ETV
vector 22 Highway.node[2].appl posx ETV
vector 23 Highway.node[2].appl posy ETV
vector 24 Highway.node[1].prot leaderDelay ETV
vector 25 Highway.node[1].prot leaderDelayId ETV
vector 26 Highway.node[1].prot frontDelay ETV
vector 27 Highway.node[1].prot frontDelayId ETV
vector 28 Highway.node[2].prot leaderDelay ETV
vector 29 Highway.node[2].prot leaderDelayId ETV
vector 30 Highway.node[2].prot frontDelay ETV
vector 31 Highway.node[2].prot frontDelayId ETV
vector 32 Highway.node[0].prot nodeId ETV
vector 33 Highway.node[0].prot busyTime ETV
vector 34 Highway.node[0].prot collisions ETV
vector 35 Highway.node[1].prot nodeId ETV
vector 36 Highway.node[1].prot busyTime ETV
vector 37 Highway.node[1].prot collisions ETV
vector 38 Highway.node[2].prot nodeId ETV
vector 39 Highway.node[2].prot busyTime ETV
vector 40 Highway.node[2].prot collisions ETV
0	113	1.11	-1
0	204	1.21	-1
0	295	1.31	-1
0	386	1.41	-1
0	477	1.51	-1
0	568	1.61	-1
0	659	1.71	-1
0	750	1.81	-1
0	841	1.91	-1
0	935	2.01	-1
0	1026	2.11	-1
0	1117	2.21	-1
0	1208	2.31	-1
0	1299	2.41	-1
0	1390	2.51	-1
0	1481	2.61	-1
0	1572	2.71	-1
0	1663	2.81	-1
0	1754	2.91	-1
0	1848	3.01	-1
0	1939	3.11	-1
0	2030	3.21	-1
0	2121	3.31	-1
0	2212	3.41	-1
0	2303	3.51	-1
0	2394	3.61	-1
0	2485	3.71	-1
0	2576	3.81	-1
0	2667	3.91	-1
0	2761	4.01	-1
0	2852	4.11	-1
0	2943	4.21	-1
0	3034	4.31	-1
0	3125	4.41	-1
0	3216	4.51	-1
0	3307	4.61	-1
0	3398	4.71	-1
0	3489	4.81	-1
0	3580	4.91	-1
0	3674	5.01	-1
0	3765	5.11	-1
0	3856	5.21	-1
0	3947	5.31	-1
0	4038	5.41	-1
0	4129	5.51	-1
0	4220	5.61	-1
0	4311	5.71	-1
0	4402	5.81	-1
0	4493	5.91	-1
0	4587	6.01	-1
0	4678	6.11	-1
0	4769	6.21	-1
0	4860	6.31	-1
0	4951	6.41	-1
0	5042	6.51	-1
0	5133	6.61	-1
0	5224	6.71	-1
0	5315	6.81	-1
0	5406	6.91	-1
0	5500	7.01	-1
0	5591	7.11	-1
0	5682	7.21	-1
0	5773	7.31	-1
0	5864	7.41	-1
0	5955	7.51	-1
0	6046	7.61	-1
0	6137	7.71	-1
0	6228	7.81	-1
0	6319	7.91	-1
0	6413	8.01	-1
0	6504	8.11	-1
0	6595	8.21	-1
0	6686	8.31	-1
0	6777	8.41	-1
0	6868	8.51	-1
0	6959	8.61	-1
0	7050	8.71	-1
0	7141	8.81	-1
0	7232	8.91	-1
0	7326	9.01	-1
0	7417	9.11	-1
0	7508	9.21	-1
0	7599	9.31	-1
0	7690	9.41	-1
0	7781	9.51	-1
0	7872	9.61	-1
0	7963	9.71	-1
0	8054	9.81	-1
0	8145	9.91	-1
0	8268	10.01	-1
0	8361	10.11	-1
0	8454	10.21	-1
0	8547	10.31	-1
0	8640	10.41	-1
0	8733	10.51	-1
0	8826	10.61	-1
0	8919	10.71	-1
0	9012	10.81	-1
0	9105	10.91	-1
0	9201	11.01	-1
0	9294	11.11	-1
0	9387	11.21	-1
0	9480	11.31	-1
0	9573	11.41	-1
0	9666	11.51	-1
0	9759	11.61	-1
0	9852	11.71	-1
0	9945	11.81	-1
0	10038	11.91	-1
0	10134	12.01	-1
0	10227	12.11	-1
0	10320	12.21	-1
0	10413	12.31	-1
0	10506	12.41	-1
0	10599	12.51	-1
0	10692	12.61	-1
0	10785	12.71	-1
0	10878	12.81	-1
0	10971	12.91	-1
0	11067	13.01	-1
0	11160	13.11	-1
0	11253	13.21	-1
0	11346	13.31	-1
0	11439	13.41	-1
0	11532	13.51	-1
0	11625	13.61	-1
0	11718	13.71	-1
0	11811	13.81	-1
0	11904	13.91	-1
0	12000	14.01	-1
0	12093	14.11	-1
0	12186	14.21	-1
0	12279	14.31	-1
0	12372	14.41	-1
0	12465	14.51	-1
0	12558	14.61	-1
0	12651	14.71	-1
0	12744	14.81	-1
0	12837	14.91	-1
0	12933	15.01	-1
0	13026	15.11	-1
0	13119	15.21	-1
0	13212	15.31	-1
0	13305	15.41	-1
0	13398	15.51	-1
0	13491	15.61	-1
0	13584	15.71	-1
0	13677	15.81	-1
0	13770	15.91	-1
0	13866	16.01	-1
0	13959	16.11	-1
0	14052	16.21	-1
0	14145	16.31	-1
0	14238	16.41	-1
0	14331	16.51	-1
0	14424	16.61	-1
0	14517	16.71	-1
0	14610	16.81	-1
0	14703	16.91	-1
0	14799	17.01	-1
0	14892	17.11	-1
0	14985	17.21	-1
0	15078	17.31	-1
0	15171	17.41	-1
0	15264	17.51	-1
0	15357	17.61	-1
0	15450	17.71	-1
0	15543	17.81	-1
0	15636	17.91	-1
0	15732	18.01	-1
0	15825	18.11	-1
0	15918	18.21	-1
0	16011	18.31	-1
0	16104	18.41	-1
0	16197	18.51	-1
0	16290	18.61	-1
0	16383	18.71	-1
0	16476	18.81	-1
0	16569	18.91	-1
0	16665	19.01	-1
0	16758	19.11	-1
0	16851	19.21	-1
0	16944	19.31	-1
0	17037	19.41	-1
0	17130	19.51	-1
0	17223	19.61	-1
0	17316	19.71	-1
0	17409	19.81	-1
0	17502	19.91	-1
0	17598	20.01	-1
0	17691	20.11	-1
0	17784	20.21	-1
0	17877	20.31	-1
0	17970	20.41	-1
0	18063	20.51	-1
0	18156	20.61	-1
0	18249	20.71	-1
0	18342	20.81	-1
0	18435	20.91	-1
0	18531	21.01	-1
0	18624	21.11	-1
0	18717	21.21	-1
0	18810	21.31	-1
0	18903	21.41	-1
0	18996	21.51	-1
0	19089	21.61	-1
0	19182	21.71	-1
0	19275	21.81	-1
0	19368	21.91	-1
0	19464	22.01	-1
0	19557	22.11	-1
0	19650	22.21	-1
0	19743	22.31	-1
0	19836	22.41	-1
0	19929	22.51	-1
0	20022	22.61	-1
0	20115	22.71	-1
0	20208	22.81	-1
0	20301	22.91	-1
0	20397	23.01	-1
0	20490	23.11	-1
0	20583	23.21	-1
0	20676	23.31	-1
0	20769	23.41	-1
0	20862	23.51	-1
0	20955	23.61	-1
0	21048	23.71	-1
0	21141	23.81	-1
0	21234	23.91	-1
0	21330	24.01	-1
0	21423	24.11	-1
0	21516	24.21	-1
0	21609	24.31	-1
0	21702	24.41	-1
0	21795	24.51	-1
0	21888	24.61	-1
0	21981	24.71	-1
0	22074	24.81	-1
0	22167	24.91	-1
0	22263	25.01	-1
0	22356	25.11	-1
0	22449	25.21	-1
0	22542	25.31	-1
0	22635	25.41	-1
0	22728	25.51	-1
0	22821	25.61	-1
0	22914	25.71	-1
0	23007	25.81	-1
0	23100	25.91	-1
0	23196	26.01	-1
0	23289	26.11	-1
0	23382	26.21	-1
0	23475	26.31	-1
0	23568	26.41	-1
0	23661	26.51	-1
0	23754	26.61	-1
0	23847	26.71	-1
0	23940	26.81	-1
0	24033	26.91	-1
0	24129	27.01	-1
0	24222	27.11	-1
0	24315	27.21	-1
0	24408	27.31	-1
0	24501	27.41	-1
0	24594	27.51	-1
0	24687	27.61	-1
0	24780	27.71	-1
0	24873	27.81	-1
0	24966	27.91	-1
0	25062	28.01	-1
0	25155	28.11	-1
0	25248	28.21	-1
0	25341	28.31	-1
0	25434	28.41	-1
0	25527	28.51	-1
0	25620	28.61	-1
0	25713	28.71	-1
0	25806	28.81	-1
0	25899	28.91	-1
0	25995	29.01	-1
0	26088	29.11	-1
0	26181	29.21	-1
0	26317	29.31	-1
0	26409	29.41	-1
0	26501	29.51	-1
0	26593	29.61	-1
0	26685	29.71	-1
0	26777	29.81	-1
0	26869	29.91	-1
0	26964	30.01	-1
0	27056	30.11	-1
0	27148	30.21	-1
0	27240	30.31	-1
0	27332	30.41	-1
0	27424	30.51	-1
0	27516	30.61	-1
0	27608	30.71	-1
0	27700	30.81	-1
0	27792	30.91	-1
0	27887	31.01	-1
0	27979	31.11	-1
0	28071	31.21	-1
0	28163	31.31	-1
0	28255	31.41	-1
0	28347	31.51	-1
0	28439	31.61	-1
0	28531	31.71	-1
0	28623	31.81	-1
0	28715	31.91	-1
0	28810	32.01	-1
0	28902	32.11	-1
0	28994	32.21	-1
0	29086	32.31	-1
0	29178	32.41	-1
0	29270	32.51	-1
0	29362	32.61	-1
0	29454	32.71	-1
0	29546	32.81	-1
0	29638	32.91	-1
0	29733	33.01	-1
0	29825	33.11	-1
0	29917	33.21	-1
0	30009	33.31	-1
0	30101	33.41	-1
0	30322	33.51	-1
0	30413	33.61	-1
0	30504	33.71	-1
0	30595	33.81	-1
0	30686	33.91	-1
0	30780	34.01	-1
0	30871	34.11	-1
0	30962	34.21	-1
0	31053	34.31	-1
0	31144	34.41	-1
0	31235	34.51	-1
0	31326	34.61	-1
0	31417	34.71	-1
0	31508	34.81	-1
0	31599	34.91	-1
0	31693	35.01	-1
0	31784	35.11	-1
0	31875	35.21	-1
0	31966	35.31	-1
0	32057	35.41	-1
0	32148	35.51	-1
0	32239	35.61	-1
0	32330	35.71	-1
0	32421	35.81	-1
0	32512	35.91	-1
0	32606	36.01	-1
0	32697	36.11	-1
0	32788	36.21	-1
0	32879	36.31	-1
0	32970	36.41	-1
0	33061	36.51	-1
0	33152	36.61	-1
0	33243	36.71	-1
0	33334	36.81	-1
0	33425	36.91	-1
0	33519	37.01	-1
0	33610	37.11	-1
0	33701	37.21	-1
0	33792	37.31	-1
0	33883	37.41	-1
0	33974	37.51	-1
0	34065	37.61	-1
0	34156	37.71	-1
0	34247	37.81	-1
0	34338	37.91	-1
0	34432	38.01	-1
0	34523	38.11	-1
0	34614	38.21	-1
0	34705	38.31	-1
0	34796	38.41	-1
0	34887	38.51	-1
0	34978	38.61	-1
0	35069	38.71	-1
0	35160	38.81	-1
0	35251	38.91	-1
0	35345	39.01	-1
0	35436	39.11	-1
0	35527	39.21	-1
0	35618	39.31	-1
0	35709	39.41	-1
0	35800	39.51	-1
0	35891	39.61	-1
0	35982	39.71	-1
0	36073	39.81	-1
0	36164	39.91	-1
0	36258	40.01	-1
0	36349	40.11	-1
0	36440	40.21	-1
0	36531	40.31	-1
0	36622	40.41	-1
0	36713	40.51	-1
0	36804	40.61	-1
0	36895	40.71	-1
0	36986	40.81	-1
0	37077	40.91	-1
0	37171	41.01	-1
0	37262	41.11	-1
0	37353	41.21	-1
0	37444	41.31	-1
0	37535	41.41	-1
0	37626	41.51	-1
0	37717	41.61	-1
0	37808	41.71	-1
0	37899	41.81	-1
0	37990	41.91	-1
0	38084	42.01	-1
0	38175	42.11	-1
0	38266	42.21	-1
0	38357	42.31	-1
0	38448	42.41	-1
0	38539	42.51	-1
0	38630	42.61	-1
0	38721	42.71	-1
0	38812	42.81	-1
0	38903	42.91	-1
0	38997	43.01	-1
0	39088	43.11	-1
0	39179	43.21	-1
0	39270	43.31	-1
0	39361	43.41	-1
0	39452	43.51	-1
0	39543	43.61	-1
0	39634	43.71	-1
0	39725	43.81	-1
0	39816	43.91	-1
0	39910	44.01	-1
0	40001	44.11	-1
0	40092	44.21	-1
0	40183	44.31	-1
0	40274	44.41	-1
0	40365	44.51	-1
0	40456	44.61	-1
0	40547	44.71	-1
0	40638	44.81	-1
0	40729	44.91	-1
0	40823	45.01	-1
0	40914	45.11	-1
0	41005	45.21	-1
0	41096	45.31	-1
0	41187	45.41	-1
0	41278	45.51	-1
0	41369	45.61	-1
0	41460	45.71	-1
0	41551	45.81	-1
0	41642	45.91	-1
0	41736	46.01	-1
0	41827	46.11	-1
0	41918	46.21	-1
0	42009	46.31	-1
0	42100	46.41	-1
0	42191	46.51	-1
0	42282	46.61	-1
0	42373	46.71	-1
0	42464	46.81	-1
0	42555	46.91	-1
0	42649	47.01	-1
0	42740	47.11	-1
0	42831	47.21	-1
0	42922	47.31	-1
0	43013	47.41	-1
0	43104	47.51	-1
0	43195	47.61	-1
0	43286	47.71	-1
0	43377	47.81	-1
0	43468	47.91	-1
0	43562	48.01	-1
0	43653	48.11	-1
0	43744	48.21	-1
0	43835	48.31	-1
0	43926	48.41	-1
0	44017	48.51	-1
0	44108	48.61	-1
0	44199	48.71	-1
0	44290	48.81	-1
0	44381	48.91	-1
0	44475	49.01	-1
0	44566	49.11	-1
0	44657	49.21	-1
0	44748	49.31	-1
0	44839	49.41	-1
0	44930	49.51	-1
0	45021	49.61	-1
0	45112	49.71	-1
0	45203	49.81	-1
0	45294	49.91	-1
0	45388	50.01	-1
0	45479	50.11	-1
0	45570	50.21	-1
0	45661	50.31	-1
0	45752	50.41	-1
0	45843	50.51	-1
0	45934	50.61	-1
0	46025	50.71	-1
0	46116	50.81	-1
0	46207	50.91	-1
0	46301	51.01	-1
0	46392	51.11	-1
0	46483	51.21	-1
0	46574	51.31	-1
0	46665	51.41	-1
0	46756	51.51	-1
0	46847	51.61	-1
0	46938	51.71	-1
0	47029	51.81	-1
0	47120	51.91	-1
0	47214	52.01	-1
0	47305	52.11	-1
0	47396	52.21	-1
0	47487	52.31	-1
0	47578	52.41	-1
0	47669	52.51	-1
0	47760	52.61	-1
0	47851	52.71	-1
0	47942	52.81	-1
0	48033	52.91	-1
0	48127	53.01	-1
0	48218	53.11	-1
0	48309	53.21	-1
0	48400	53.31	-1
0	48491	53.41	-1
0	48582	53.51	-1
0	48673	53.61	-1
0	48764	53.71	-1
0	48855	53.81	-1
0	48946	53.91	-1
0	49040	54.01	-1
0	49131	54.11	-1
0	49222	54.21	-1
0	49313	54.31	-1
0	49404	54.41	-1
0	49495	54.51	-1
0	49586	54.61	-1
0	49677	54.71	-1
0	49768	54.81	-1
0	49859	54.91	-1
0	49953	55.01	-1
0	50044	55.11	-1
0	50135	55.21	-1
0	50226	55.31	-1
0	50317	55.41	-1
0	50408	55.51	-1
0	50499	55.61	-1
0	50590	55.71	-1
0	50681	55.81	-1
0	50772	55.91	-1
0	50866	56.01	-1
0	50957	56.11	-1
0	51048	56.21	-1
0	51139	56.31	-1
0	51230	56.41	-1
0	51321	56.51	-1
0	51412	56.61	-1
0	51503	56.71	-1
0	51594	56.81	-1
0	51685	56.91	-1
0	51779	57.01	-1
0	51870	57.11	-1
0	51961	57.21	-1
0	52052	57.31	-1
0	52143	57.41	-1
0	52234	57.51	-1
0	52325	57.61	-1
0	52416	57.71	-1
0	52507	57.81	-1
0	52598	57.91	-1
0	52692	58.01	-1
0	52783	58.11	-1
0	52874	58.21	-1
0	52965	58.31	-1
0	53056	58.41	-1
0	53147	58.51	-1
0	53238	58.61	-1
0	53329	58.71	-1
0	53420	58.81	-1
0	53511	58.91	-1
0	53605	59.01	-1
0	53696	59.11	-1
0	53787	59.21	-1
0	53878	59.31	-1
0	53969	59.41	-1
0	54060	59.51	-1
0	54151	59.61	-1
0	54242	59.71	-1
0	54333	59.81	25.5509
0	54424	59.91	25.6954
0	54518	60.01	25.8398
0	54609	60.11	25.9843
0	54700	60.21	26.1287
0	54791	60.31	26.2731
0	54882	60.41	26.4176
0	54973	60.51	26.562
0	55064	60.61	26.7065
0	55155	60.71	26.8509
0	55246	60.81	26.9953
0	55337	60.91	27.1398
0	55431	61.01	27.2842
0	55522	61.11	27.4287
0	55613	61.21	27.5731
0	55704	61.31	27.7175
0	55795	61.41	27.862
0	55886	61.51	28.0064
0	55977	61.61	28.1509
0	56068	61.71	28.2953
0	56159	61.81	28.4397
0	56250	61.91	28.5842
0	56344	62.01	28.7286
0	56435	62.11	28.8731
0	56526	62.21	29.0175
0	56617	62.31	29.1619
0	56708	62.41	29.3064
0	56799	62.51	29.4508
0	56890	62.61	29.5953
0	56981	62.71	29.7397
0	57072	62.81	29.8841
0	57163	62.91	30.0286
0	57257	63.01	30.173
0	57348	63.11	30.3175
0	57439	63.21	30.4619
0	57530	63.31	30.6063
0	57621	63.41	30.7508
0	57712	63.51	30.8952
0	57803	63.61	31.0397
0	57894	63.71	31.1841
0	57985	63.81	31.3285
0	58076	63.91	31.473
0	58170	64.01	31.6174
0	58261	64.11	31.7619
0	58352	64.21	31.9063
0	58443	64.31	32.0507
0	58534	64.41	32.1952
0	58625	64.51	32.3396
0	58716	64.61	32.4841
0	58807	64.71	32.6285
0	58898	64.81	32.7729
0	58989	64.91	32.9174
0	59083	65.01	33.0618
0	59174	65.11	33.2063
0	59265	65.21	33.3507
0	59356	65.31	33.4951
0	59447	65.41	33.6396
0	59538	65.51	33.784
0	59629	65.61	33.9285
0	59720	65.71	34.0729
0	59811	65.81	34.2173
0	59902	65.91	34.3618
0	59996	66.01	34.5062
0	60087	66.11	34.6507
0	60178	66.21	34.7951
0	60269	66.31	34.9395
0	60360	66.41	35.084
0	60451	66.51	35.2284
0	60542	66.61	35.3729
0	60633	66.71	35.5173
0	60724	66.81	35.6617
0	60815	66.91	35.8062
0	60909	67.01	35.9506
0	61000	67.11	36.0951
0	61091	67.21	36.2395
0	61182	67.31	36.3839
0	61273	67.41	36.5284
0	61364	67.51	36.6728
0	61455	67.61	36.8173
0	61546	67.71	36.9617
0	61637	67.81	37.1061
0	61728	67.91	37.2506
0	61822	68.01	37.395
0	61913	68.11	37.5395
0	62004	68.21	37.6839
0	62095	68.31	37.8283
0	62186	68.41	37.9728
0	62277	68.51	38.1172
0	62368	68.61	38.2617
0	62459	68.71	38.4061
0	62550	68.81	38.5505
0	62641	68.91	38.695
0	62735	69.01	38.8394
0	62826	69.11	38.9839
0	62917	69.21	39.1283
0	63008	69.31	39.2727
0	63099	69.41	39.4172
0	63190	69.51	39.5616
0	63281	69.61	39.7061
0	63372	69.71	39.8505
0	63463	69.81	39.9949
0	63554	69.91	40.1394
0	63648	70.01	40.2838
0	63739	70.11	40.4283
0	63830	70.21	40.5727
0	63921	70.31	40.7171
0	64012	70.41	40.8616
0	64103	70.51	41.006
0	64194	70.61	41.1505
0	64285	70.71	41.2949
0	64376	70.81	41.4393
0	64467	70.91	41.5838
0	64561	71.01	41.7282
0	64652	71.11	41.8727
0	64743	71.21	42.0171
0	64834	71.31	42.1615
0	64925	71.41	42.306
0	65016	71.51	42.4504
0	65107	71.61	42.5949
0	65198	71.71	42.7393
0	65289	71.81	42.8837
0	65380	71.91	43.0282
0	65474	72.01	43.1726
0	65565	72.11	43.3171
0	65656	72.21	43.4615
0	65747	72.31	43.6059
0	65838	72.41	43.7504
0	65929	72.51	43.8948
0	66020	72.61	44.0393
0	66111	72.71	44.1837
0	66202	72.81	44.3281
0	66293	72.91	44.4726
0	66387	73.01	44.617
0	66478	73.11	44.7615
0	66569	73.21	44.9059
0	66660	73.31	45.0503
0	66751	73.41	45.1948
0	66842	73.51	45.3392
0	66933	73.61	45.4837
0	67024	73.71	45.6281
0	67115	73.81	45.7725
0	67206	73.91	45.917
0	67300	74.01	46.0614
0	67391	74.11	46.2059
0	67482	74.21	46.3503
0	67573	74.31	46.4947
0	67664	74.41	46.6392
0	67755	74.51	46.7836
0	67846	74.61	46.9281
0	67937	74.71	47.0725
0	68028	74.81	47.2169
0	68119	74.91	47.3614
0	68213	75.01	47.5058
0	68304	75.11	47.6503
0	68395	75.21	47.7947
0	68486	75.31	47.9391
0	68577	75.41	48.0836
0	68668	75.51	48.228
0	68759	75.61	48.3725
0	68850	75.71	48.5169
0	68941	75.81	48.6613
0	69032	75.91	48.8058
0	69126	76.01	48.9502
0	69217	76.11	49.0947
0	69308	76.21	49.2391
0	69399	76.31	49.3835
0	69490	76.41	49.528
0	69581	76.51	49.6724
0	69672	76.61	49.8169
0	69763	76.71	49.9613
0	69854	76.81	50.1057
0	69945	76.91	50.2502
0	70039	77.01	50.3946
0	70130	77.11	50.5391
0	70221	77.21	50.6835
0	70312	77.31	50.8279
0	70403	77.41	50.9724
0	70494	77.51	51.1168
0	70585	77.61	51.2613
0	70676	77.71	51.4057
0	70767	77.81	51.5501
0	70858	77.91	51.6946
0	70952	78.01	51.839
0	71043	78.11	51.9835
0	71134	78.21	52.1279
0	71225	78.31	52.2723
0	71316	78.41	52.4168
0	71407	78.51	52.5612
0	71498	78.61	52.7057
0	71589	78.71	52.8501
0	71680	78.81	52.9945
0	71771	78.91	53.139
0	71865	79.01	53.2834
0	71956	79.11	53.4279
0	72047	79.21	53.5723
0	72138	79.31	53.7167
0	72229	79.41	53.8612
0	72320	79.51	54.0056
0	72411	79.61	54.1501
0	72502	79.71	54.2945
0	72593	79.81	54.4389
0	72684	79.91	54.5834
0	72778	80.01	54.7278
0	72869	80.11	54.8723
0	72960	80.21	55.0167
0	73051	80.31	55.1611
0	73142	80.41	55.3056
0	73233	80.51	55.45
0	73324	80.61	55.5945
0	73415	80.71	55.7389
0	73506	80.81	55.8833
0	73597	80.91	56.0278
0	73691	81.01	56.1722
0	73782	81.11	56.3167
0	73873	81.21	56.4611
0	73964	81.31	56.6055
0	74055	81.41	56.75
0	74146	81.51	56.8944
0	74237	81.61	57.0389
0	74328	81.71	57.1833
0	74419	81.81	57.3277
0	74510	81.91	57.4722
0	74604	82.01	57.6166
0	74695	82.11	57.7611
0	74786	82.21	57.9055
0	74877	82.31	58.0499
0	74968	82.41	58.1944
0	75059	82.51	58.3388
0	75150	82.61	58.4833
0	75241	82.71	58.6277
0	75332	82.81	58.7721
0	75423	82.91	58.9166
0	75517	83.01	59.061
0	75608	83.11	59.2055
0	75699	83.21	59.3499
0	75790	83.31	59.4943
0	75881	83.41	59.6388
0	75972	83.51	59.7832
0	76063	83.61	59.9277
0	76154	83.71	60.0721
0	76245	83.81	60.2165
0	76336	83.91	60.361
0	76430	84.01	60.5054
0	76521	84.11	60.6499
0	76612	84.21	60.7943
0	76703	84.31	60.9387
0	76794	84.41	61.0832
0	76885	84.51	61.2276
0	76976	84.61	61.3721
0	77067	84.71	61.5165
0	77158	84.81	61.6609
0	77249	84.91	61.8054
0	77343	85.01	61.9498
0	77434	85.11	62.0943
0	77525	85.21	62.2387
0	77616	85.31	62.3831
0	77707	85.41	62.5276
0	77798	85.51	62.672
0	77889	85.61	62.8165
0	77980	85.71	62.9609
0	78071	85.81	63.1053
0	78162	85.91	63.2498
0	78256	86.01	63.3942
0	78347	86.11	63.5387
0	78438	86.21	63.6831
0	78529	86.31	63.8275
0	78620	86.41	63.972
0	78711	86.51	64.1164
0	78802	86.61	64.2609
0	78893	86.71	64.4053
0	78984	86.81	64.5497
0	79075	86.91	64.6942
0	79169	87.01	64.8386
0	79260	87.11	64.9831
0	79351	87.21	65.1275
0	79442	87.31	65.2719
0	79533	87.41	65.4164
0	79624	87.51	65.5608
0	79715	87.61	65.7053
0	79806	87.71	65.8497
0	79897	87.81	65.9941
0	79988	87.91	66.1386
0	80082	88.01	66.283
0	80173	88.11	66.4275
0	80264	88.21	66.5719
0	80355	88.31	66.7163
0	80446	88.41	66.8608
0	80537	88.51	67.0052
0	80628	88.61	67.1497
0	80719	88.71	67.2941
0	80810	88.81	67.4385
0	80901	88.91	67.583
0	80995	89.01	67.7274
0	81086	89.11	67.8719
0	81177	89.21	68.0163
0	81268	89.31	68.1607
0	81359	89.41	68.3052
0	81450	89.51	68.4496
0	81541	89.61	68.5941
0	81632	89.71	68.7385
0	81723	89.81	68.8829
0	81814	89.91	69.0274
0	81908	90.01	69.1718
0	81999	90.11	69.3163
0	82090	90.21	69.4607
0	82181	90.31	69.6051
0	82272	90.41	69.7496
0	82363	90.51	69.894
0	82454	90.61	70.0385
0	82545	90.71	70.1829
0	82636	90.81	70.3273
0	82727	90.91	70.4718
0	82821	91.01	70.6162
0	82912	91.11	70.7607
0	83003	91.21	70.9051
0	83094	91.31	71.0495
0	83185	91.41	71.194
0	83276	91.51	71.3384
0	83367	91.61	71.4829
0	83458	91.71	71.6273
0	83549	91.81	71.7717
0	83640	91.91	71.9162
0	83734	92.01	72.0606
0	83825	92.11	72.2051
0	83916	92.21	72.3495
0	84007	92.31	72.4939
0	84098	92.41	72.6384
0	84189	92.51	72.7828
0	84280	92.61	72.9273
0	84371	92.71	73.0717
0	84462	92.81	73.2161
0	84553	92.91	73.3606
0	84647	93.01	73.505
0	84738	93.11	73.6495
0	84829	93.21	73.7939
0	84920	93.31	73.9383
0	85011	93.41	74.0828
0	85102	93.51	74.2272
0	85193	93.61	74.3717
0	85284	93.71	74.5161
0	85375	93.81	74.6605
0	85466	93.91	74.805
0	85560	94.01	74.9494
0	85651	94.11	75.0939
0	85742	94.21	75.2383
0	85833	94.31	75.3827
0	85924	94.41	75.5272
0	86015	94.51	75.6716
0	86106	94.61	75.8161
0	86197	94.71	75.9605
0	86288	94.81	76.1049
0	86379	94.91	76.2494
0	86473	95.01	76.3938
0	86564	95.11	76.5383
0	86655	95.21	76.6827
0	86746	95.31	76.8271
0	86837	95.41	76.9716
0	86928	95.51	77.116
0	87019	95.61	77.2605
0	87110	95.71	77.4049
0	87201	95.81	77.5493
0	87292	95.91	77.6938
0	87386	96.01	77.8382
0	87477	96.11	77.9827
0	87568	96.21	78.1271
0	87659	96.31	78.2715
0	87750	96.41	78.416
0	87841	96.51	78.5604
0	87932	96.61	78.7049
0	88023	96.71	78.8493
0	88114	96.81	78.9937
0	88205	96.91	79.1382
0	88299	97.01	79.2826
0	88390	97.11	79.4271
0	88481	97.21	79.5715
0	88572	97.31	79.7159
0	88663	97.41	79.8604
0	88754	97.51	80.0048
0	88845	97.61	80.1493
0	88936	97.71	80.2937
0	89027	97.81	80.4381
0	89118	97.91	80.5826
0	89212	98.01	80.727
0	89303	98.11	80.8715
0	89394	98.21	81.0159
0	89485	98.31	81.1603
0	89576	98.41	81.3048
0	89667	98.51	81.4492
0	89758	98.61	81.5937
0	89849	98.71	81.7381
0	89940	98.81	81.8825
0	90031	98.91	82.027
0	90125	99.01	82.1714
0	90216	99.11	82.3159
0	90307	99.21	82.4603
0	90398	99.31	82.6047
0	90489	99.41	82.7492
0	90580	99.51	82.8936
0	90671	99.61	83.0381
0	90762	99.71	83.1825
0	90853	99.81	83.3269
0	90944	99.91	83.4714
1	113	1.11	0
1	204	1.21	0
1	295	1.31	0
1	386	1.41	0
1	477	1.51	0
1	568	1.61	0
1	659	1.71	0
1	750	1.81	0
1	841	1.91	0
1	935	2.01	0
1	1026	2.11	0
1	1117	2.21	0
1	1208	2.31	0
1	1299	2.41	0
1	1390	2.51	0
1	1481	2.61	0
1	1572	2.71	0
1	1663	2.81	0
1	1754	2.91	0
1	1848	3.01	0
1	1939	3.11	0
1	2030	3.21	0
1	2121	3.31	0
1	2212	3.41	0
1	2303	3.51	0
1	2394	3.61	0
1	2485	3.71	0
1	2576	3.81	0
1	2667	3.91	0
1	2761	4.01	0
1	2852	4.11	0
1	2943	4.21	0
1	3034	4.31	0
1	3125	4.41	0
1	3216	4.51	0
1	3307	4.61	0
1	3398	4.71	0
1	3489	4.81	0
1	3580	4.91	0
1	3674	5.01	0
1	3765	5.11	0
1	3856	5.21	0
1	3947	5.31	0
1	4038	5.41	0
1	4129	5.51	0
1	4220	5.61	0
1	4311	5.71	0
1	4402	5.81	0
1	4493	5.91	0
1	4587	6.01	0
1	4678	6.11	0
1	4769	6.21	0
1	4860	6.31	0
1	4951	6.41	0
1	5042	6.51	0
1	5133	6.61	0
1	5224	6.71	0
1	5315	6.81	0
1	5406	6.91	0
1	5500	7.01	0
1	5591	7.11	0
1	5682	7.21	0
1	5773	7.31	0
1	5864	7.41	0
1	5955	7.51	0
1	6046	7.61	0
1	6137	7.71	0
1	6228	7.81	0
1	6319	7.91	0
1	6413	8.01	0
1	6504	8.11	0
1	6595	8.21	0
1	6686	8.31	0
1	6777	8.41	0
1	6868	8.51	0
1	6959	8.61	0
1	7050	8.71	0
1	7141	8.81	0
1	7232	8.91	0
1	7326	9.01	0
1	7417	9.11	0
1	7508	9.21	0
1	7599	9.31	0
1	7690	9.41	0
1	7781	9.51	0
1	7872	9.61	0
1	7963	9.71	0
1	8054	9.81	0
1	8145	9.91	0
1	8268	10.01	0
1	8361	10.11	0
1	8454	10.21	0
1	8547	10.31	0
1	8640	10.41	0
1	8733	10.51	0
1	8826	10.61	0
1	8919	10.71	0
1	9012	10.81	0
1	9105	10.91	0
1	9201	11.01	0
1	9294	11.11	0
1	9387	11.21	0
1	9480	11.31	0
1	9573	11.41	0
1	9666	11.51	0
1	9759	11.61	0
1	9852	11.71	0
1	9945	11.81	0
1	10038	11.91	0
1	10134	12.01	0
1	10227	12.11	0
1	10320	12.21	0
1	10413	12.31	0
1	10506	12.41	0
1	10599	12.51	0
1	10692	12.61	0
1	10785	12.71	0
1	10878	12.81	0
1	10971	12.91	0
1	11067	13.01	0
1	11160	13.11	0
1	11253	13.21	0
1	11346	13.31	0
1	11439	13.41	0
1	11532	13.51	0
1	11625	13.61	0
1	11718	13.71	0
1	11811	13.81	0
1	11904	13.91	0
1	12000	14.01	0
1	12093	14.11	0
1	12186	14.21	0
1	12279	14.31	0
1	12372	14.41	0
1	12465	14.51	0
1	12558	14.61	0
1	12651	14.71	0
1	12744	14.81	0
1	12837	14.91	0
1	12933	15.01	0
1	13026	15.11	0
1	13119	15.21	0
1	13212	15.31	0
1	13305	15.41	0
1	13398	15.51	0
1	13491	15.61	0
1	13584	15.71	0
1	13677	15.81	0
1	13770	15.91	0
1	13866	16.01	0
1	13959	16.11	0
1	14052	16.21	0
1	14145	16.31	0
1	14238	16.41	0
1	14331	16.51	0
1	14424	16.61	0
1	14517	16.71	0
1	14610	16.81	0
1	14703	16.91	0
1	14799	17.01	0
1	14892	17.11	0
1	14985	17.21	0
1	15078	17.31	0
1	15171	17.41	0
1	15264	17.51	0
1	15357	17.61	0
1	15450	17.71	0
1	15543	17.81	0
1	15636	17.91	0
1	15732	18.01	0
1	15825	18.11	0
1	15918	18.21	0
1	16011	18.31	0
1	16104	18.41	0
1	16197	18.51	0
1	16290	18.61	0
1	16383	18.71	0
1	16476	18.81	0
1	16569	18.91	0
1	16665	19.01	0
1	16758	19.11	0
1	16851	19.21	0
1	16944	19.31	0
1	17037	19.41	0
1	17130	19.51	0
1	17223	19.61	0
1	17316	19.71	0
1	17409	19.81	0
1	17502	19.91	0
1	17598	20.01	0
1	17691	20.11	0
1	17784	20.21	0
1	17877	20.31	0
1	17970	20.41	0
1	18063	20.51	0
1	18156	20.61	0
1	18249	20.71	0
1	18342	20.81	0
1	18435	20.91	0
1	18531	21.01	0
1	18624	21.11	0
1	18717	21.21	0
1	18810	21.31	0
1	18903	21.41	0
1	18996	21.51	0
1	19089	21.61	0
1	19182	21.71	0
1	19275	21.81	0
1	19368	21.91	0
1	19464	22.01	0
1	19557	22.11	0
1	19650	22.21	0
1	19743	22.31	0
1	19836	22.41	0
1	19929	22.51	0
1	20022	22.61	0
1	20115	22.71	0
1	20208	22.81	0
1	20301	22.91	0
1	20397	23.01	0
1	20490	23.11	0
1	20583	23.21	0
1	20676	23.31	0
1	20769	23.41	0
1	20862	23.51	0
1	20955	23.61	0
1	21048	23.71	0
1	21141	23.81	0
1	21234	23.91	0
1	21330	24.01	0
1	21423	24.11	0
1	21516	24.21	0
1	21609	24.31	0
1	21702	24.41	0
1	21795	24.51	0
1	21888	24.61	0
1	21981	24.71	0
1	22074	24.81	0
1	22167	24.91	0
1	22263	25.01	0
1	22356	25.11	0
1	22449	25.21	0
1	22542	25.31	0
1	22635	25.41	0
1	22728	25.51	0
1	22821	25.61	0
1	22914	25.71	0
1	23007	25.81	0
1	23100	25.91	0
1	23196	26.01	0
1	23289	26.11	0
1	23382	26.21	0
1	23475	26.31	0
1	23568	26.41	0
1	23661	26.51	0
1	23754	26.61	0
1	23847	26.71	0
1	23940	26.81	0
1	24033	26.91	0
1	24129	27.01	0
1	24222	27.11	0
1	24315	27.21	0
1	24408	27.31	0
1	24501	27.41	0
1	24594	27.51	0
1	24687	27.61	0
1	24780	27.71	0
1	24873	27.81	0
1	24966	27.91	0
1	25062	28.01	0
1	25155	28.11	0
1	25248	28.21	0
1	25341	28.31	0
1	25434	28.41	0
1	25527	28.51	0
1	25620	28.61	0
1	25713	28.71	0
1	25806	28.81	0
1	25899	28.91	0
1	25995	29.01	0
1	26088	29.11	0
1	26181	29.21	0
1	26317	29.31	0
1	26409	29.41	0
1	26501	29.51	0
1	26593	29.61	0
1	26685	29.71	0
1	26777	29.81	0
1	26869	29.91	0
1	26964	30.01	0
1	27056	30.11	0
1	27148	30.21	0
1	27240	30.31	0
1	27332	30.41	0
1	27424	30.51	0
1	27516	30.61	0
1	27608	30.71	0
1	27700	30.81	0
1	27792	30.91	0
1	27887	31.01	0
1	27979	31.11	0
1	28071	31.21	0
1	28163	31.31	0
1	28255	31.41	0
1	28347	31.51	0
1	28439	31.61	0
1	28531	31.71	0
1	28623	31.81	0
1	28715	31.91	0
1	28810	32.01	0
1	28902	32.11	0
1	28994	32.21	0
1	29086	32.31	0
1	29178	32.41	0
1	29270	32.51	0
1	29362	32.61	0
1	29454	32.71	0
1	29546	32.81	0
1	29638	32.91	0
1	29733	33.01	0
1	29825	33.11	0
1	29917	33.21	0
1	30009	33.31	0
1	30101	33.41	0
1	30322	33.51	0
1	30413	33.61	0
1	30504	33.71	0
1	30595	33.81	0
1	30686	33.91	0
1	30780	34.01	0
1	30871	34.11	0
1	30962	34.21	0
1	31053	34.31	0
1	31144	34.41	0
1	31235	34.51	0
1	31326	34.61	0
1	31417	34.71	0
1	31508	34.81	0
1	31599	34.91	0
1	31693	35.01	0
1	31784	35.11	0
1	31875	35.21	0
1	31966	35.31	0
1	32057	35.41	0
1	32148	35.51	0
1	32239	35.61	0
1	32330	35.71	0
1	32421	35.81	0
1	32512	35.91	0
1	32606	36.01	0
1	32697	36.11	0
1	32788	36.21	0
1	32879	36.31	0
1	32970	36.41	0
1	33061	36.51	0
1	33152	36.61	0
1	33243	36.71	0
1	33334	36.81	0
1	33425	36.91	0
1	33519	37.01	0
1	33610	37.11	0
1	33701	37.21	0
1	33792	37.31	0
1	33883	37.41	0
1	33974	37.51	0
1	34065	37.61	0
1	34156	37.71	0
1	34247	37.81	0
1	34338	37.91	0
1	34432	38.01	0
1	34523	38.11	0
1	34614	38.21	0
1	34705	38.31	0
1	34796	38.41	0
1	34887	38.51	0
1	34978	38.61	0
1	35069	38.71	0
1	35160	38.81	0
1	35251	38.91	0
1	35345	39.01	0
1	35436	39.11	0
1	35527	39.21	0
1	35618	39.31	0
1	35709	39.41	0
1	35800	39.51	0
1	35891	39.61	0
1	35982	39.71	0
1	36073	39.81	0
1	36164	39.91	0
1	36258	40.01	0
1	36349	40.11	0
1	36440	40.21	0
1	36531	40.31	0
1	36622	40.41	0
1	36713	40.51	0
1	36804	40.61	0
1	36895	40.71	0
1	36986	40.81	0
1	37077	40.91	0
1	37171	41.01	0
1	37262	41.11	0
1	37353	41.21	0
1	37444	41.31	0
1	37535	41.41	0
1	37626	41.51	0
1	37717	41.61	0
1	37808	41.71	0
1	37899	41.81	0
1	37990	41.91	0
1	38084	42.01	0
1	38175	42.11	0
1	38266	42.21	0
1	38357	42.31	0
1	38448	42.41	0
1	38539	42.51	0
1	38630	42.61	0
1	38721	42.71	0
1	38812	42.81	0
1	38903	42.91	0
1	38997	43.01	0
1	39088	43.11	0
1	39179	43.21	0
1	39270	43.31	0
1	39361	43.41	0
1	39452	43.51	0
1	39543	43.61	0
1	39634	43.71	0
1	39725	43.81	0
1	39816	43.91	0
1	39910	44.01	0
1	40001	44.11	0
1	40092	44.21	0
1	40183	44.31	0
1	40274	44.41	0
1	40365	44.51	0
1	40456	44.61	0
1	40547	44.71	0
1	40638	44.81	0
1	40729	44.91	0
1	40823	45.01	0
1	40914	45.11	0
1	41005	45.21	0
1	41096	45.31	0
1	41187	45.41	0
1	41278	45.51	0
1	41369	45.61	0
1	41460	45.71	0
1	41551	45.81	0
1	41642	45.91	0
1	41736	46.01	0
1	41827	46.11	0
1	41918	46.21	0
1	42009	46.31	0
1	42100	46.41	0
1	42191	46.51	0
1	42282	46.61	0
1	42373	46.71	0
1	42464	46.81	0
1	42555	46.91	0
1	42649	47.01	0
1	42740	47.11	0
1	42831	47.21	0
1	42922	47.31	0
1	43013	47.41	0
1	43104	47.51	0
1	43195	47.61	0
1	43286	47.71	0
1	43377	47.81	0
1	43468	47.91	0
1	43562	48.01	0
1	43653	48.11	0
1	43744	48.21	0
1	43835	48.31	0
1	43926	48.41	0
1	44017	48.51	0
1	44108	48.61	0
1	44199	48.71	0
1	44290	48.81	0
1	44381	48.91	0
1	44475	49.01	0
1	44566	49.11	0
1	44657	49.21	0
1	44748	49.31	0
1	44839	49.41	0
1	44930	49.51	0
1	45021	49.61	0
1	45112	49.71	0
1	45203	49.81	0
1	45294	49.91	0
1	45388	50.01	0
1	45479	50.11	0
1	45570	50.21	0
1	45661	50.31	0
1	45752	50.41	0
1	45843	50.51	0
1	45934	50.61	0
1	46025	50.71	0
1	46116	50.81	0
1	46207	50.91	0
1	46301	51.01	0
1	46392	51.11	0
1	46483	51.21	0
1	46574	51.31	0
1	46665	51.41	0
1	46756	51.51	0
1	46847	51.61	0
1	46938	51.71	0
1	47029	51.81	0
1	47120	51.91	0
1	47214	52.01	0
1	47305	52.11	0
1	47396	52.21	0
1	47487	52.31	0
1	47578	52.41	0
1	47669	52.51	0
1	47760	52.61	0
1	47851	52.71	0
1	47942	52.81	0
1	48033	52.91	0
1	48127	53.01	0
1	48218	53.11	0
1	48309	53.21	0
1	48400	53.31	0
1	48491	53.41	0
1	48582	53.51	0
1	48673	53.61	0
1	48764	53.71	0
1	48855	53.81	0
1	48946	53.91	0
1	49040	54.01	0
1	49131	54.11	0
1	49222	54.21	0
1	49313	54.31	0
1	49404	54.41	0
1	49495	54.51	0
1	49586	54.61	0
1	49677	54.71	0
1	49768	54.81	0
1	49859	54.91	0
1	49953	55.01	0
1	50044	55.11	0
1	50135	55.21	0
1	50226	55.31	0
1	50317	55.41	0
1	50408	55.51	0
1	50499	55.61	0
1	50590	55.71	0
1	50681	55.81	0
1	50772	55.91	0
1	50866	56.01	0
1	50957	56.11	0
1	51048	56.21	0
1	51139	56.31	0
1	51230	56.41	0
1	51321	56.51	0
1	51412	56.61	0
1	51503	56.71	0
1	51594	56.81	0
1	51685	56.91	0
1	51779	57.01	0
1	51870	57.11	0
1	51961	57.21	0
1	52052	57.31	0
1	52143	57.41	0
1	52234	57.51	0
1	52325	57.61	0
1	52416	57.71	0
1	52507	57.81	0
1	52598	57.91	0
1	52692	58.01	0
1	52783	58.11	0
1	52874	58.21	0
1	52965	58.31	0
1	53056	58.41	0
1	53147	58.51	0
1	53238	58.61	0
1	53329	58.71	0
1	53420	58.81	0
1	53511	58.91	0
1	53605	59.01	0
1	53696	59.11	0
1	53787	59.21	0
1	53878	59.31	0
1	53969	59.41	0
1	54060	59.51	0
1	54151	59.61	0
1	54242	59.71	0
1	54333	59.81	1.4444
1	54424	59.91	1.4444
1	54518	60.01	1.4444
1	54609	60.11	1.4444
1	54700	60.21	1.4444
1	54791	60.31	1.4444
1	54882	60.41	1.4444
1	54973	60.51	1.4444
1	55064	60.61	1.4444
1	55155	60.71	1.4444
1	55246	60.81	1.4444
1	55337	60.91	1.4444
1	55431	61.01	1.4444
1	55522	61.11	1.4444
1	55613	61.21	1.4444
1	55704	61.31	1.4444
1	55795	61.41	1.4444
1	55886	61.51	1.4444
1	55977	61.61	1.4444
1	56068	61.71	1.4444
1	56159	61.81	1.4444
1	56250	61.91	1.4444
1	56344	62.01	1.4444
1	56435	62.11	1.4444
1	56526	62.21	1.4444
1	56617	62.31	1.4444
1	56708	62.41	1.4444
1	56799	62.51	1.4444
1	56890	62.61	1.4444
1	56981	62.71	1.4444
1	57072	62.81	1.4444
1	57163	62.91	1.4444
1	57257	63.01	1.4444
1	57348	63.11	1.4444
1	57439	63.21	1.4444
1	57530	63.31	1.4444
1	57621	63.41	1.4444
1	57712	63.51	1.4444
1	57803	63.61	1.4444
1	57894	63.71	1.4444
1	57985	63.81	1.4444
1	58076	63.91	1.4444
1	58170	64.01	1.4444
1	58261	64.11	1.4444
1	58352	64.21	1.4444
1	58443	64.31	1.4444
1	58534	64.41	1.4444
1	58625	64.51	1.4444
1	58716	64.61	1.4444
1	58807	64.71	1.4444
1	58898	64.81	1.4444
1	58989	64.91	1.4444
1	59083	65.01	1.4444
1	59174	65.11	1.4444
1	59265	65.21	1.4444
1	59356	65.31	1.4444
1	59447	65.41	1.4444
1	59538	65.51	1.4444
1	59629	65.61	1.4444
1	59720	65.71	1.4444
1	59811	65.81	1.4444
1	59902	65.91	1.4444
1	59996	66.01	1.4444
1	60087	66.11	1.4444
1	60178	66.21	1.4444
1	60269	66.31	1.4444
1	60360	66.41	1.4444
1	60451	66.51	1.4444
1	60542	66.61	1.4444
1	60633	66.71	1.4444
1	60724	66.81	1.4444
1	60815	66.91	1.4444
1	60909	67.01	1.4444
1	61000	67.11	1.4444
1	61091	67.21	1.4444
1	61182	67.31	1.4444
1	61273	67.41	1.4444
1	61364	67.51	1.4444
1	61455	67.61	1.4444
1	61546	67.71	1.4444
1	61637	67.81	1.4444
1	61728	67.91	1.4444
1	61822	68.01	1.4444
1	61913	68.11	1.4444
1	62004	68.21	1.4444
1	62095	68.31	1.4444
1	62186	68.41	1.4444
1	62277	68.51	1.4444
1	62368	68.61	1.4444
1	62459	68.71	1.4444
1	62550	68.81	1.4444
1	62641	68.91	1.4444
1	62735	69.01	1.4444
1	62826	69.11	1.4444
1	62917	69.21	1.4444
1	63008	69.31	1.4444
1	63099	69.41	1.4444
1	63190	69.51	1.4444
1	63281	69.61	1.4444
1	63372	69.71	1.4444
1	63463	69.81	1.4444
1	63554	69.91	1.4444
1	63648	70.01	1.4444
1	63739	70.11	1.4444
1	63830	70.21	1.4444
1	63921	70.31	1.4444
1	64012	70.41	1.4444
1	64103	70.51	1.4444
1	64194	70.61	1.4444
1	64285	70.71	1.4444
1	64376	70.81	1.4444
1	64467	70.91	1.4444
1	64561	71.01	1.4444
1	64652	71.11	1.4444
1	64743	71.21	1.4444
1	64834	71.31	1.4444
1	64925	71.41	1.4444
1	65016	71.51	1.4444
1	65107	71.61	1.4444
1	65198	71.71	1.4444
1	65289	71.81	1.4444
1	65380	71.91	1.4444
1	65474	72.01	1.4444
1	65565	72.11	1.4444
1	65656	72.21	1.4444
1	65747	72.31	1.4444
1	65838	72.41	1.4444
1	65929	72.51	1.4444
1	66020	72.61	1.4444
1	66111	72.71	1.4444
1	66202	72.81	1.4444
1	66293	72.91	1.4444
1	66387	73.01	1.4444
1	66478	73.11	1.4444
1	66569	73.21	1.4444
1	66660	73.31	1.4444
1	66751	73.41	1.4444
1	66842	73.51	1.4444
1	66933	73.61	1.4444
1	67024	73.71	1.4444
1	67115	73.81	1.4444
1	67206	73.91	1.4444
1	67300	74.01	1.4444
1	67391	74.11	1.4444
1	67482	74.21	1.4444
1	67573	74.31	1.4444
1	67664	74.41	1.4444
1	67755	74.51	1.4444
1	67846	74.61	1.4444
1	67937	74.71	1.4444
1	68028	74.81	1.4444
1	68119	74.91	1.4444
1	68213	75.01	1.4444
1	68304	75.11	1.4444
1	68395	75.21	1.4444
1	68486	75.31	1.4444
1	68577	75.41	1.4444
1	68668	75.51	1.4444
1	68759	75.61	1.4444
1	68850	75.71	1.4444
1	68941	75.81	1.4444
1	69032	75.91	1.4444
1	69126	76.01	1.4444
1	69217	76.11	1.4444
1	69308	76.21	1.4444
1	69399	76.31	1.4444
1	69490	76.41	1.4444
1	69581	76.51	1.4444
1	69672	76.61	1.4444
1	69763	76.71	1.4444
1	69854	76.81	1.4444
1	69945	76.91	1.4444
1	70039	77.01	1.4444
1	70130	77.11	1.4444
1	70221	77.21	1.4444
1	70312	77.31	1.4444
1	70403	77.41	1.4444
1	70494	77.51	1.4444
1	70585	77.61	1.4444
1	70676	77.71	1.4444
1	70767	77.81	1.4444
1	70858	77.91	1.4444
1	70952	78.01	1.4444
1	71043	78.11	1.4444
1	71134	78.21	1.4444
1	71225	78.31	1.4444
1	71316	78.41	1.4444
1	71407	78.51	1.4444
1	71498	78.61	1.4444
1	71589	78.71	1.4444
1	71680	78.81	1.4444
1	71771	78.91	1.4444
1	71865	79.01	1.4444
1	71956	79.11	1.4444
1	72047	79.21	1.4444
1	72138	79.31	1.4444
1	72229	79.41	1.4444
1	72320	79.51	1.4444
1	72411	79.61	1.4444
1	72502	79.71	1.4444
1	72593	79.81	1.4444
1	72684	79.91	1.4444
1	72778	80.01	1.4444
1	72869	80.11	1.4444
1	72960	80.21	1.4444
1	73051	80.31	1.4444
1	73142	80.41	1.4444
1	73233	80.51	1.4444
1	73324	80.61	1.4444
1	73415	80.71	1.4444
1	73506	80.81	1.4444
1	73597	80.91	1.4444
1	73691	81.01	1.4444
1	73782	81.11	1.4444
1	73873	81.21	1.4444
1	73964	81.31	1.4444
1	74055	81.41	1.4444
1	74146	81.51	1.4444
1	74237	81.61	1.4444
1	74328	81.71	1.4444
1	74419	81.81	1.4444
1	74510	81.91	1.4444
1	74604	82.01	1.4444
1	74695	82.11	1.4444
1	74786	82.21	1.4444
1	74877	82.31	1.4444
1	74968	82.41	1.4444
1	75059	82.51	1.4444
1	75150	82.61	1.4444
1	75241	82.71	1.4444
1	75332	82.81	1.4444
1	75423	82.91	1.4444
1	75517	83.01	1.4444
1	75608	83.11	1.4444
1	75699	83.21	1.4444
1	75790	83.31	1.4444
1	75881	83.41	1.4444
1	75972	83.51	1.4444
1	76063	83.61	1.4444
1	76154	83.71	1.4444
1	76245	83.81	1.4444
1	76336	83.91	1.4444
1	76430	84.01	1.4444
1	76521	84.11	1.4444
1	76612	84.21	1.4444
1	76703	84.31	1.4444
1	76794	84.41	1.4444
1	76885	84.51	1.4444
1	76976	84.61	1.4444
1	77067	84.71	1.4444
1	77158	84.81	1.4444
1	77249	84.91	1.4444
1	77343	85.01	1.4444
1	77434	85.11	1.4444
1	77525	85.21	1.4444
1	77616	85.31	1.4444
1	77707	85.41	1.4444
1	77798	85.51	1.4444
1	77889	85.61	1.4444
1	77980	85.71	1.4444
1	78071	85.81	1.4444
1	78162	85.91	1.4444
1	78256	86.01	1.4444
1	78347	86.11	1.4444
1	78438	86.21	1.4444
1	78529	86.31	1.4444
1	78620	86.41	1.4444
1	78711	86.51	1.4444
1	78802	86.61	1.4444
1	78893	86.71	1.4444
1	78984	86.81	1.4444
1	79075	86.91	1.4444
1	79169	87.01	1.4444
1	79260	87.11	1.4444
1	79351	87.21	1.4444
1	79442	87.31	1.4444
1	79533	87.41	1.4444
1	79624	87.51	1.4444
1	79715	87.61	1.4444
1	79806	87.71	1.4444
1	79897	87.81	1.4444
1	79988	87.91	1.4444
1	80082	88.01	1.4444
1	80173	88.11	1.4444
1	80264	88.21	1.4444
1	80355	88.31	1.4444
1	80446	88.41	1.4444
1	80537	88.51	1.4444
1	80628	88.61	1.4444
1	80719	88.71	1.4444
1	80810	88.81	1.4444
1	80901	88.91	1.4444
1	80995	89.01	1.4444
1	81086	89.11	1.4444
1	81177	89.21	1.4444
1	81268	89.31	1.4444
1	81359	89.41	1.4444
1	81450	89.51	1.4444
1	81541	89.61	1.4444
1	81632	89.71	1.4444
1	81723	89.81	1.4444
1	81814	89.91	1.4444
1	81908	90.01	1.4444
1	81999	90.11	1.4444
1	82090	90.21	1.4444
1	82181	90.31	1.4444
1	82272	90.41	1.4444
1	82363	90.51	1.4444
1	82454	90.61	1.4444
1	82545	90.71	1.4444
1	82636	90.81	1.4444
1	82727	90.91	1.4444
1	82821	91.01	1.4444
1	82912	91.11	1.4444
1	83003	91.21	1.4444
1	83094	91.31	1.4444
1	83185	91.41	1.4444
1	83276	91.51	1.4444
1	83367	91.61	1.4444
1	83458	91.71	1.4444
1	83549	91.81	1.4444
1	83640	91.91	1.4444
1	83734	92.01	1.4444
1	83825	92.11	1.4444
1	83916	92.21	1.4444
1	84007	92.31	1.4444
1	84098	92.41	1.4444
1	84189	92.51	1.4444
1	84280	92.61	1.4444
1	84371	92.71	1.4444
1	84462	92.81	1.4444
1	84553	92.91	1.4444
1	84647	93.01	1.4444
1	84738	93.11	1.4444
1	84829	93.21	1.4444
1	84920	93.31	1.4444
1	85011	93.41	1.4444
1	85102	93.51	1.4444
1	85193	93.61	1.4444
1	85284	93.71	1.4444
1	85375	93.81	1.4444
1	85466	93.91	1.4444
1	85560	94.01	1.4444
1	85651	94.11	1.4444
1	85742	94.21	1.4444
1	85833	94.31	1.4444
1	85924	94.41	1.4444
1	86015	94.51	1.4444
1	86106	94.61	1.4444
1	86197	94.71	1.4444
1	86288	94.81	1.4444
1	86379	94.91	1.4444
1	86473	95.01	1.4444
1	86564	95.11	1.4444
1	86655	95.21	1.4444
1	86746	95.31	1.4444
1	86837	95.41	1.4444
1	86928	95.51	1.4444
1	87019	95.61	1.4444
1	87110	95.71	1.4444
1	87201	95.81	1.4444
1	87292	95.91	1.4444
1	87386	96.01	1.4444
1	87477	96.11	1.4444
1	87568	96.21	1.4444
1	87659	96.31	1.4444
1	87750	96.41	1.4444
1	87841	96.51	1.4444
1	87932	96.61	1.4444
1	88023	96.71	1.4444
1	88114	96.81	1.4444
1	88205	96.91	1.4444
1	88299	97.01	1.4444
1	88390	97.11	1.4444
1	88481	97.21	1.4444
1	88572	97.31	1.4444
1	88663	97.41	1.4444
1	88754	97.51	1.4444
1	88845	97.61	1.4444
1	88936	97.71	1.4444
1	89027	97.81	1.4444
1	89118	97.91	1.4444
1	89212	98.01	1.4444
1	89303	98.11	1.4444
1	89394	98.21	1.4444
1	89485	98.31	1.4444
1	89576	98.41	1.4444
1	89667	98.51	1.4444
1	89758	98.61	1.4444
1	89849	98.71	1.4444
1	89940	98.81	1.4444
1	90031	98.91	1.4444
1	90125	99.01	1.4444
1	90216	99.11	1.4444
1	90307	99.21	1.4444
1	90398	99.31	1.4444
1	90489	99.41	1.4444
1	90580	99.51	1.4444
1	90671	99.61	1.4444
1	90762	99.71	1.4444
1	90853	99.81	1.4444
1	90944	99.91	1.4444
2	113	1.11	0
2	204	1.21	0
2	295	1.31	0
2	386	1.41	0
2	477	1.51	0
2	568	1.61	0
2	659	1.71	0
2	750	1.81	0
2	841	1.91	0
2	935	2.01	0
2	1026	2.11	0
2	1117	2.21	0
2	1208	2.31	0
2	1299	2.41	0
2	1390	2.51	0
2	1481	2.61	0
2	1572	2.71	0
2	1663	2.81	0
2	1754	2.91	0
2	1848	3.01	0
2	1939	3.11	0
2	2030	3.21	0
2	2121	3.31	0
2	2212	3.41	0
2	2303	3.51	0
2	2394	3.61	0
2	2485	3.71	0
2	2576	3.81	0
2	2667	3.91	0
2	2761	4.01	0
2	2852	4.11	0
2	2943	4.21	0
2	3034	4.31	0
2	3125	4.41	0
2	3216	4.51	0
2	3307	4.61	0
2	3398	4.71	0
2	3489	4.81	0
2	3580	4.91	0
2	3674	5.01	0
2	3765	5.11	0
2	3856	5.21	0
2	3947	5.31	0
2	4038	5.41	0
2	4129	5.51	0
2	4220	5.61	0
2	4311	5.71	0
2	4402	5.81	0
2	4493	5.91	0
2	4587	6.01	0
2	4678	6.11	0
2	4769	6.21	0
2	4860	6.31	0
2	4951	6.41	0
2	5042	6.51	0
2	5133	6.61	0
2	5224	6.71	0
2	5315	6.81	0
2	5406	6.91	0
2	5500	7.01	0
2	5591	7.11	0
2	5682	7.21	0
2	5773	7.31	0
2	5864	7.41	0
2	5955	7.51	0
2	6046	7.61	0
2	6137	7.71	0
2	6228	7.81	0
2	6319	7.91	0
2	6413	8.01	0
2	6504	8.11	0
2	6595	8.21	0
2	6686	8.31	0
2	6777	8.41	0
2	6868	8.51	0
2	6959	8.61	0
2	7050	8.71	0
2	7141	8.81	0
2	7232	8.91	0
2	7326	9.01	0
2	7417	9.11	0
2	7508	9.21	0
2	7599	9.31	0
2	7690	9.41	0
2	7781	9.51	0
2	7872	9.61	0
2	7963	9.71	0
2	8054	9.81	0
2	8145	9.91	0
2	8268	10.01	0
2	8361	10.11	0
2	8454	10.21	0
2	8547	10.31	0
2	8640	10.41	0
2	8733	10.51	0
2	8826	10.61	0
2	8919	10.71	0
2	9012	10.81	0
2	9105	10.91	0
2	9201	11.01	0
2	9294	11.11	0
2	9387	11.21	0
2	9480	11.31	0
2	9573	11.41	0
2	9666	11.51	0
2	9759	11.61	0
2	9852	11.71	0
2	9945	11.81	0
2	10038	11.91	0
2	10134	12.01	0
2	10227	12.11	0
2	10320	12.21	0
2	10413	12.31	0
2	10506	12.41	0
2	10599	12.51	0
2	10692	12.61	0
2	10785	12.71	0
2	10878	12.81	0
2	10971	12.91	0
2	11067	13.01	0
2	11160	13.11	0
2	11253	13.21	0
2	11346	13.31	0
2	11439	13.41	0
2	11532	13.51	0
2	11625	13.61	0
2	11718	13.71	0
2	11811	13.81	0
2	11904	13.91	0
2	12000	14.01	0
2	12093	14.11	0
2	12186	14.21	0
2	12279	14.31	0
2	12372	14.41	0
2	12465	14.51	0
2	12558	14.61	0
2	12651	14.71	0
2	12744	14.81	0
2	12837	14.91	0
2	12933	15.01	0
2	13026	15.11	0
2	13119	15.21	0
2	13212	15.31	0
2	13305	15.41	0
2	13398	15.51	0
2	13491	15.61	0
2	13584	15.71	0
2	13677	15.81	0
2	13770	15.91	0
2	13866	16.01	0
2	13959	16.11	0
2	14052	16.21	0
2	14145	16.31	0
2	14238	16.41	0
2	14331	16.51	0
2	14424	16.61	0
2	14517	16.71	0
2	14610	16.81	0
2	14703	16.91	0
2	14799	17.01	0
2	14892	17.11	0
2	14985	17.21	0
2	15078	17.31	0
2	15171	17.41	0
2	15264	17.51	0
2	15357	17.61	0
2	15450	17.71	0
2	15543	17.81	0
2	15636	17.91	0
2	15732	18.01	0
2	15825	18.11	0
2	15918	18.21	0
2	16011	18.31	0
2	16104	18.41	0
2	16197	18.51	0
2	16290	18.61	0
2	16383	18.71	0
2	16476	18.81	0
2	16569	18.91	0
2	16665	19.01	0
2	16758	19.11	0
2	16851	19.21	0
2	16944	19.31	0
2	17037	19.41	0
2	17130	19.51	0
2	17223	19.61	0
2	17316	19.71	0
2	17409	19.81	0
2	17502	19.91	0
2	17598	20.01	0
2	17691	20.11	0
2	17784	20.21	0
2	17877	20.31	0
2	17970	20.41	0
2	18063	20.51	0
2	18156	20.61	0
2	18249	20.71	0
2	18342	20.81	0
2	18435	20.91	0
2	18531	21.01	0
2	18624	21.11	0
2	18717	21.21	0
2	18810	21.31	0
2	18903	21.41	0
2	18996	21.51	0
2	19089	21.61	0
2	19182	21.71	0
2	19275	21.81	0
2	19368	21.91	0
2	19464	22.01	0
2	19557	22.11	0
2	19650	22.21	0
2	19743	22.31	0
2	19836	22.41	0
2	19929	22.51	0
2	20022	22.61	0
2	20115	22.71	0
2	20208	22.81	0
2	20301	22.91	0
2	20397	23.01	0
2	20490	23.11	0
2	20583	23.21	0
2	20676	23.31	0
2	20769	23.41	0
2	20862	23.51	0
2	20955	23.61	0
2	21048	23.71	0
2	21141	23.81	0
2	21234	23.91	0
2	21330	24.01	0
2	21423	24.11	0
2	21516	24.21	0
2	21609	24.31	0
2	21702	24.41	0
2	21795	24.51	0
2	21888	24.61	0
2	21981	24.71	0
2	22074	24.81	0
2	22167	24.91	0
2	22263	25.01	0
2	22356	25.11	0
2	22449	25.21	0
2	22542	25.31	0
2	22635	25.41	0
2	22728	25.51	0
2	22821	25.61	0
2	22914	25.71	0
2	23007	25.81	0
2	23100	25.91	0
2	23196	26.01	0
2	23289	26.11	0
2	23382	26.21	0
2	23475	26.31	0
2	23568	26.41	0
2	23661	26.51	0
2	23754	26.61	0
2	23847	26.71	0
2	23940	26.81	0
2	24033	26.91	0
2	24129	27.01	0
2	24222	27.11	0
2	24315	27.21	0
2	24408	27.31	0
2	24501	27.41	0
2	24594	27.51	0
2	24687	27.61	0
2	24780	27.71	0
2	24873	27.81	0
2	24966	27.91	0
2	25062	28.01	0
2	25155	28.11	0
2	25248	28.21	0
2	25341	28.31	0
2	25434	28.41	0
2	25527	28.51	0
2	25620	28.61	0
2	25713	28.71	0
2	25806	28.81	0
2	25899	28.91	0
2	25995	29.01	0
2	26088	29.11	0
2	26181	29.21	0
2	26317	29.31	0
2	26409	29.41	0
2	26501	29.51	0
2	26593	29.61	0
2	26685	29.71	0
2	26777	29.81	0
2	26869	29.91	0
2	26964	30.01	0
2	27056	30.11	0
2	27148	30.21	0
2	27240	30.31	0
2	27332	30.41	0
2	27424	30.51	0
2	27516	30.61	0
2	27608	30.71	0
2	27700	30.81	0
2	27792	30.91	0
2	27887	31.01	0
2	27979	31.11	0
2	28071	31.21	0
2	28163	31.31	0
2	28255	31.41	0
2	28347	31.51	0
2	28439	31.61	0
2	28531	31.71	0
2	28623	31.81	0
2	28715	31.91	0
2	28810	32.01	0
2	28902	32.11	0
2	28994	32.21	0
2	29086	32.31	0
2	29178	32.41	0
2	29270	32.51	0
2	29362	32.61	0
2	29454	32.71	0
2	29546	32.81	0
2	29638	32.91	0
2	29733	33.01	0
2	29825	33.11	0
2	29917	33.21	0
2	30009	33.31	0
2	30101	33.41	0
2	30322	33.51	0
2	30413	33.61	0
2	30504	33.71	0
2	30595	33.81	0
2	30686	33.91	0
2	30780	34.01	0
2	30871	34.11	0
2	30962	34.21	0
2	31053	34.31	0
2	31144	34.41	0
2	31235	34.51	0
2	31326	34.61	0
2	31417	34.71	0
2	31508	34.81	0
2	31599	34.91	0
2	31693	35.01	0
2	31784	35.11	0
2	31875	35.21	0
2	31966	35.31	0
2	32057	35.41	0
2	32148	35.51	0
2	32239	35.61	0
2	32330	35.71	0
2	32421	35.81	0
2	32512	35.91	0
2	32606	36.01	0
2	32697	36.11	0
2	32788	36.21	0
2	32879	36.31	0
2	32970	36.41	0
2	33061	36.51	0
2	33152	36.61	0
2	33243	36.71	0
2	33334	36.81	0
2	33425	36.91	0
2	33519	37.01	0
2	33610	37.11	0
2	33701	37.21	0
2	33792	37.31	0
2	33883	37.41	0
2	33974	37.51	0
2	34065	37.61	0
2	34156	37.71	0
2	34247	37.81	0
2	34338	37.91	0
2	34432	38.01	0
2	34523	38.11	0
2	34614	38.21	0
2	34705	38.31	0
2	34796	38.41	0
2	34887	38.51	0
2	34978	38.61	0
2	35069	38.71	0
2	35160	38.81	0
2	35251	38.91	0
2	35345	39.01	0
2	35436	39.11	0
2	35527	39.21	0
2	35618	39.31	0
2	35709	39.41	0
2	35800	39.51	0
2	35891	39.61	0
2	35982	39.71	0
2	36073	39.81	0
2	36164	39.91	0
2	36258	40.01	0
2	36349	40.11	0
2	36440	40.21	0
2	36531	40.31	0
2	36622	40.41	0
2	36713	40.51	0
2	36804	40.61	0
2	36895	40.71	0
2	36986	40.81	0
2	37077	40.91	0
2	37171	41.01	0
2	37262	41.11	0
2	37353	41.21	0
2	37444	41.31	0
2	37535	41.41	0
2	37626	41.51	0
2	37717	41.61	0
2	37808	41.71	0
2	37899	41.81	0
2	37990	41.91	0
2	38084	42.01	0
2	38175	42.11	0
2	38266	42.21	0
2	38357	42.31	0
2	38448	42.41	0
2	38539	42.51	0
2	38630	42.61	0
2	38721	42.71	0
2	38812	42.81	0
2	38903	42.91	0
2	38997	43.01	0
2	39088	43.11	0
2	39179	43.21	0
2	39270	43.31	0
2	39361	43.41	0
2	39452	43.51	0
2	39543	43.61	0
2	39634	43.71	0
2	39725	43.81	0
2	39816	43.91	0
2	39910	44.01	0
2	40001	44.11	0
2	40092	44.21	0
2	40183	44.31	0
2	40274	44.41	0
2	40365	44.51	0
2	40456	44.61	0
2	40547	44.71	0
2	40638	44.81	0
2	40729	44.91	0
2	40823	45.01	0
2	40914	45.11	0
2	41005	45.21	0
2	41096	45.31	0
2	41187	45.41	0
2	41278	45.51	0
2	41369	45.61	0
2	41460	45.71	0
2	41551	45.81	0
2	41642	45.91	0
2	41736	46.01	0
2	41827	46.11	0
2	41918	46.21	0
2	42009	46.31	0
2	42100	46.41	0
2	42191	46.51	0
2	42282	46.61	0
2	42373	46.71	0
2	42464	46.81	0
2	42555	46.91	0
2	42649	47.01	0
2	42740	47.11	0
2	42831	47.21	0
2	42922	47.31	0
2	43013	47.41	0
2	43104	47.51	0
2	43195	47.61	0
2	43286	47.71	0
2	43377	47.81	0
2	43468	47.91	0
2	43562	48.01	0
2	43653	48.11	0
2	43744	48.21	0
2	43835	48.31	0
2	43926	48.41	0
2	44017	48.51	0
2	44108	48.61	0
2	44199	48.71	0
2	44290	48.81	0
2	44381	48.91	0
2	44475	49.01	0
2	44566	49.11	0
2	44657	49.21	0
2	44748	49.31	0
2	44839	49.41	0
2	44930	49.51	0
2	45021	49.61	0
2	45112	49.71	0
2	45203	49.81	0
2	45294	49.91	0
2	45388	50.01	0
2	45479	50.11	0
2	45570	50.21	0
2	45661	50.31	0
2	45752	50.41	0
2	45843	50.51	0
2	45934	50.61	0
2	46025	50.71	0
2	46116	50.81	0
2	46207	50.91	0
2	46301	51.01	0
2	46392	51.11	0
2	46483	51.21	0
2	46574	51.31	0
2	46665	51.41	0
2	46756	51.51	0
2	46847	51.61	0
2	46938	51.71	0
2	47029	51.81	0
2	47120	51.91	0
2	47214	52.01	0
2	47305	52.11	0
2	47396	52.21	0
2	47487	52.31	0
2	47578	52.41	0
2	47669	52.51	0
2	47760	52.61	0
2	47851	52.71	0
2	47942	52.81	0
2	48033	52.91	0
2	48127	53.01	0
2	48218	53.11	0
2	48309	53.21	0
2	48400	53.31	0
2	48491	53.41	0
2	48582	53.51	0
2	48673	53.61	0
2	48764	53.71	0
2	48855	53.81	0
2	48946	53.91	0
2	49040	54.01	0
2	49131	54.11	0
2	49222	54.21	0
2	49313	54.31	0
2	49404	54.41	0
2	49495	54.51	0
2	49586	54.61	0
2	49677	54.71	0
2	49768	54.81	0
2	49859	54.91	0
2	49953	55.01	0
2	50044	55.11	0
2	50135	55.21	0
2	50226	55.31	0
2	50317	55.41	0
2	50408	55.51	0
2	50499	55.61	0
2	50590	55.71	0
2	50681	55.81	0
2	50772	55.91	0
2	50866	56.01	0
2	50957	56.11	0
2	51048	56.21	0
2	51139	56.31	0
2	51230	56.41	0
2	51321	56.51	0
2	51412	56.61	0
2	51503	56.71	0
2	51594	56.81	0
2	51685	56.91	0
2	51779	57.01	0
2	51870	57.11	0
2	51961	57.21	0
2	52052	57.31	0
2	52143	57.41	0
2	52234	57.51	0
2	52325	57.61	0
2	52416	57.71	0
2	52507	57.81	0
2	52598	57.91	0
2	52692	58.01	0
2	52783	58.11	0
2	52874	58.21	0
2	52965	58.31	0
2	53056	58.41	0
2	53147	58.51	0
2	53238	58.61	0
2	53329	58.71	0
2	53420	58.81	0
2	53511	58.91	0
2	53605	59.01	0
2	53696	59.11	0
2	53787	59.21	0
2	53878	59.31	0
2	53969	59.41	0
2	54060	59.51	0
2	54151	59.61	0
2	54242	59.71	0
2	54333	59.81	0
2	54424	59.91	0
2	54518	60.01	0
2	54609	60.11	0
2	54700	60.21	0
2	54791	60.31	0
2	54882	60.41	0
2	54973	60.51	0
2	55064	60.61	0
2	55155	60.71	0
2	55246	60.81	0
2	55337	60.91	0
2	55431	61.01	0
2	55522	61.11	0
2	55613	61.21	0
2	55704	61.31	0
2	55795	61.41	0
2	55886	61.51	0
2	55977	61.61	0
2	56068	61.71	0
2	56159	61.81	0
2	56250	61.91	0
2	56344	62.01	0
2	56435	62.11	0
2	56526	62.21	0
2	56617	62.31	0
2	56708	62.41	0
2	56799	62.51	0
2	56890	62.61	0
2	56981	62.71	0
2	57072	62.81	0
2	57163	62.91	0
2	57257	63.01	0
2	57348	63.11	0
2	57439	63.21	0
2	57530	63.31	0
2	57621	63.41	0
2	57712	63.51	0
2	57803	63.61	0
2	57894	63.71	0
2	57985	63.81	0
2	58076	63.91	0
2	58170	64.01	0
2	58261	64.11	0
2	58352	64.21	0
2	58443	64.31	0
2	58534	64.41	0
2	58625	64.51	0
2	58716	64.61	0
2	58807	64.71	0
2	58898	64.81	0
2	58989	64.91	0
2	59083	65.01	0
2	59174	65.11	0
2	59265	65.21	0
2	59356	65.31	0
2	59447	65.41	0
2	59538	65.51	0
2	59629	65.61	0
2	59720	65.71	0
2	59811	65.81	0
2	59902	65.91	0
2	59996	66.01	0
2	60087	66.11	0
2	60178	66.21	0
2	60269	66.31	0
2	60360	66.41	0
2	60451	66.51	0
2	60542	66.61	0
2	60633	66.71	0
2	60724	66.81	0
2	60815	66.91	0
2	60909	67.01	0
2	61000	67.11	0
2	61091	67.21	0
2	61182	67.31	0
2	61273	67.41	0
2	61364	67.51	0
2	61455	67.61	0
2	61546	67.71	0
2	61637	67.81	0
2	61728	67.91	0
2	61822	68.01	0
2	61913	68.11	0
2	62004	68.21	0
2	62095	68.31	0
2	62186	68.41	0
2	62277	68.51	0
2	62368	68.61	0
2	62459	68.71	0
2	62550	68.81	0
2	62641	68.91	0
2	62735	69.01	0
2	62826	69.11	0
2	62917	69.21	0
2	63008	69.31	0
2	63099	69.41	0
2	63190	69.51	0
2	63281	69.61	0
2	63372	69.71	0
2	63463	69.81	0
2	63554	69.91	0
2	63648	70.01	0
2	63739	70.11	0
2	63830	70.21	0
2	63921	70.31	0
2	64012	70.41	0
2	64103	70.51	0
2	64194	70.61	0
2	64285	70.71	0
2	64376	70.81	0
2	64467	70.91	0
2	64561	71.01	0
2	64652	71.11	0
2	64743	71.21	0
2	64834	71.31	0
2	64925	71.41	0
2	65016	71.51	0
2	65107	71.61	0
2	65198	71.71	0
2	65289	71.81	0
2	65380	71.91	0
2	65474	72.01	0
2	65565	72.11	0
2	65656	72.21	0
2	65747	72.31	0
2	65838	72.41	0
2	65929	72.51	0
2	66020	72.61	0
2	66111	72.71	0
2	66202	72.81	0
2	66293	72.91	0
2	66387	73.01	0
2	66478	73.11	0
2	66569	73.21	0
2	66660	73.31	0
2	66751	73.41	0
2	66842	73.51	0
2	66933	73.61	0
2	67024	73.71	0
2	67115	73.81	0
2	67206	73.91	0
2	67300	74.01	0
2	67391	74.11	0
2	67482	74.21	0
2	67573	74.31	0
2	67664	74.41	0
2	67755	74.51	0
2	67846	74.61	0
2	67937	74.71	0
2	68028	74.81	0
2	68119	74.91	0
2	68213	75.01	0
2	68304	75.11	0
2	68395	75.21	0
2	68486	75.31	0
2	68577	75.41	0
2	68668	75.51	0
2	68759	75.61	0
2	68850	75.71	0
2	68941	75.81	0
2	69032	75.91	0
2	69126	76.01	0
2	69217	76.11	0
2	69308	76.21	0
2	69399	76.31	0
2	69490	76.41	0
2	69581	76.51	0
2	69672	76.61	0
2	69763	76.71	0
2	69854	76.81	0
2	69945	76.91	0
2	70039	77.01	0
2	70130	77.11	0
2	70221	77.21	0
2	70312	77.31	0
2	70403	77.41	0
2	70494	77.51	0
2	70585	77.61	0
2	70676	77.71	0
2	70767	77.81	0
2	70858	77.91	0
2	70952	78.01	0
2	71043	78.11	0
2	71134	78.21	0
2	71225	78.31	0
2	71316	78.41	0
2	71407	78.51	0
2	71498	78.61	0
2	71589	78.71	0
2	71680	78.81	0
2	71771	78.91	0
2	71865	79.01	0
2	71956	79.11	0
2	72047	79.21	0
2	72138	79.31	0
2	72229	79.41	0
2	72320	79.51	0
2	72411	79.61	0
2	72502	79.71	0
2	72593	79.81	0
2	72684	79.91	0
2	72778	80.01	0
2	72869	80.11	0
2	72960	80.21	0
2	73051	80.31	0
2	73142	80.41	0
2	73233	80.51	0
2	73324	80.61	0
2	73415	80.71	0
2	73506	80.81	0
2	73597	80.91	0
2	73691	81.01	0
2	73782	81.11	0
2	73873	81.21	0
2	73964	81.31	0
2	74055	81.41	0
2	74146	81.51	0
2	74237	81.61	0
2	74328	81.71	0
2	74419	81.81	0
2	74510	81.91	0
2	74604	82.01	0
2	74695	82.11	0
2	74786	82.21	0
2	74877	82.31	0
2	74968	82.41	0
2	75059	82.51	0
2	75150	82.61	0
2	75241	82.71	0
2	75332	82.81	0
2	75423	82.91	0
2	75517	83.01	0
2	75608	83.11	0
2	75699	83.21	0
2	75790	83.31	0
2	75881	83.41	0
2	75972	83.51	0
2	76063	83.61	0
2	76154	83.71	0
2	76245	83.81	0
2	76336	83.91	0
2	76430	84.01	0
2	76521	84.11	0
2	76612	84.21	0
2	76703	84.31	0
2	76794	84.41	0
2	76885	84.51	0
2	76976	84.61	0
2	77067	84.71	0
2	77158	84.81	0
2	77249	84.91	0
2	77343	85.01	0
2	77434	85.11	0
2	77525	85.21	0
2	77616	85.31	0
2	77707	85.41	0
2	77798	85.51	0
2	77889	85.61	0
2	77980	85.71	0
2	78071	85.81	0
2	78162	85.91	0
2	78256	86.01	0
2	78347	86.11	0
2	78438	86.21	0
2	78529	86.31	0
2	78620	86.41	0
2	78711	86.51	0
2	78802	86.61	0
2	78893	86.71	0
2	78984	86.81	0
2	79075	86.91	0
2	79169	87.01	0
2	79260	87.11	0
2	79351	87.21	0
2	79442	87.31	0
2	79533	87.41	0
2	79624	87.51	0
2	79715	87.61	0
2	79806	87.71	0
2	79897	87.81	0
2	79988	87.91	0
2	80082	88.01	0
2	80173	88.11	0
2	80264	88.21	0
2	80355	88.31	0
2	80446	88.41	0
2	80537	88.51	0
2	80628	88.61	0
2	80719	88.71	0
2	80810	88.81	0
2	80901	88.91	0
2	80995	89.01	0
2	81086	89.11	0
2	81177	89.21	0
2	81268	89.31	0
2	81359	89.41	0
2	81450	89.51	0
2	81541	89.61	0
2	81632	89.71	0
2	81723	89.81	0
2	81814	89.91	0
2	81908	90.01	0
2	81999	90.11	0
2	82090	90.21	0
2	82181	90.31	0
2	82272	90.41	0
2	82363	90.51	0
2	82454	90.61	0
2	82545	90.71	0
2	82636	90.81	0
2	82727	90.91	0
2	82821	91.01	0
2	82912	91.11	0
2	83003	91.21	0
2	83094	91.31	0
2	83185	91.41	0
2	83276	91.51	0
2	83367	91.61	0
2	83458	91.71	0
2	83549	91.81	0
2	83640	91.91	0
2	83734	92.01	0
2	83825	92.11	0
2	83916	92.21	0
2	84007	92.31	0
2	84098	92.41	0
2	84189	92.51	0
2	84280	92.61	0
2	84371	92.71	0
2	84462	92.81	0
2	84553	92.91	0
2	84647	93.01	0
2	84738	93.11	0
2	84829	93.21	0
2	84920	93.31	0
2	85011	93.41	0
2	85102	93.51	0
2	85193	93.61	0
2	85284	93.71	0
2	85375	93.81	0
2	85466	93.91	0
2	85560	94.01	0
2	85651	94.11	0
2	85742	94.21	0
2	85833	94.31	0
2	85924	94.41	0
2	86015	94.51	0
2	86106	94.61	0
2	86197	94.71	0
2	86288	94.81	0
2	86379	94.91	0
2	86473	95.01	0
2	86564	95.11	0
2	86655	95.21	0
2	86746	95.31	0
2	86837	95.41	0
2	86928	95.51	0
2	87019	95.61	0
2	87110	95.71	0
2	87201	95.81	0
2	87292	95.91	0
2	87386	96.01	0
2	87477	96.11	0
2	87568	96.21	0
2	87659	96.31	0
2	87750	96.41	0
2	87841	96.51	0
2	87932	96.61	0
2	88023	96.71	0
2	88114	96.81	0
2	88205	96.91	0
2	88299	97.01	0
2	88390	97.11	0
2	88481	97.21	0
2	88572	97.31	0
2	88663	97.41	0
2	88754	97.51	0
2	88845	97.61	0
2	88936	97.71	0
2	89027	97.81	0
2	89118	97.91	0
2	89212	98.01	0
2	89303	98.11	0
2	89394	98.21	0
2	89485	98.31	0
2	89576	98.41	0
2	89667	98.51	0
2	89758	98.61	0
2	89849	98.71	0
2	89940	98.81	0
2	90031	98.91	0
2	90125	99.01	0
2	90216	99.11	0
2	90307	99.21	0
2	90398	99.31	0
2	90489	99.41	0
2	90580	99.51	0
2	90671	99.61	0
2	90762	99.71	0
2	90853	99.81	0
2	90944	99.91	0
3	113	1.11	-0.000716383
3	204	1.21	-0.00136341
3	295	1.31	-0.00186974
3	386	1.41	-0.00225157
3	477	1.51	-0.00252443
3	568	1.61	-0.00270298
3	659	1.71	-0.00280098
3	750	1.81	-0.00283113
3	841	1.91	-0.00280509
3	935	2.01	-0.00273342
3	1026	2.11	-0.00262559
3	1117	2.21	-0.00249005
3	1208	2.31	-0.00233419
3	1299	2.41	-0.00216447
3	1390	2.51	-0.00198642
3	1481	2.61	-0.00180472
3	1572	2.71	-0.0016233
3	1663	2.81	-0.00144536
3	1754	2.91	-0.00127346
3	1848	3.01	-0.0011096
3	1939	3.11	-0.000955278
3	2030	3.21	-0.000811546
3	2121	3.31	-0.00067908
3	2212	3.41	-0.000558232
3	2303	3.51	-0.000449082
3	2394	3.61	-0.000351487
3	2485	3.71	-0.00026512
3	2576	3.81	-0.000189514
3	2667	3.91	-0.000124092
3	2761	4.01	-6.81972e-05
3	2852	4.11	-2.11209e-05
3	2943	4.21	1.78769e-05
3	3034	4.31	4.9548e-05
3	3125	4.41	7.46407e-05
3	3216	4.51	9.38867e-05
3	3307	4.61	0.000107991
3	3398	4.71	0.000117625
3	3489	4.81	0.000123418
3	3580	4.91	0.000125957
3	3674	5.01	0.000125781
3	3765	5.11	0.00012338
3	3856	5.21	0.000119198
3	3947	5.31	0.000113629
3	4038	5.41	0.000107022
3	4129	5.51	9.96832e-05
3	4220	5.61	9.18747e-05
3	4311	5.71	8.38211e-05
3	4402	5.81	7.57109e-05
3	4493	5.91	6.76999e-05
3	4587	6.01	5.99137e-05
3	4678	6.11	5.24518e-05
3	4769	6.21	4.53896e-05
3	4860	6.31	3.87821e-05
3	4951	6.41	3.2666e-05
3	5042	6.51	2.70628e-05
3	5133	6.61	2.19809e-05
3	5224	6.71	1.74176e-05
3	5315	6.81	1.33618e-05
3	5406	6.91	9.79494e-06
3	5500	7.01	6.6932e-06
3	5591	7.11	4.02864e-06
3	5682	7.21	1.77051e-06
3	5773	7.31	-1.13691e-07
3	5864	7.41	-1.65736e-06
3	5955	7.51	-2.89397e-06
3	6046	7.61	-3.85652e-06
3	6137	7.71	-4.57698e-06
3	6228	7.81	-5.08591e-06
3	6319	7.91	-5.41219e-06
3	6413	8.01	-5.58279e-06
3	6504	8.11	-5.6226e-06
3	6595	8.21	-5.55442e-06
3	6686	8.31	-5.39886e-06
3	6777	8.41	-5.17441e-06
3	6868	8.51	-4.89748e-06
3	6959	8.61	-4.58246e-06
3	7050	8.71	-4.24184e-06
3	7141	8.81	-3.88634e-06
3	7232	8.91	-3.52499e-06
3	7326	9.01	-3.16534e-06
3	7417	9.11	-2.81353e-06
3	7508	9.21	-2.47446e-06
3	7599	9.31	-2.15192e-06
3	7690	9.41	-1.84873e-06
3	7781	9.51	-1.56685e-06
3	7872	9.61	-1.30751e-06
3	7963	9.71	-1.0713e-06
3	8054	9.81	-8.58321e-07
3	8145	9.91	-6.68206e-07
3	8268	10.01	-5.0026e-07
3	8361	10.11	-3.53514e-07
3	8454	10.21	-2.2679e-07
3	8547	10.31	-1.18765e-07
3	8640	10.41	-2.80163e-08
3	8733	10.51	4.6931e-08
3	8826	10.61	1.07573e-07
3	8919	10.71	1.55391e-07
3	9012	10.81	1.91831e-07
3	9105	10.91	2.18284e-07
3	9201	11.01	2.3607e-07
3	9294	11.11	2.46427e-07
3	9387	11.21	2.50502e-07
3	9480	11.31	2.49353e-07
3	9573	11.41	2.43938e-07
3	9666	11.51	2.3512e-07
3	9759	11.61	2.23669e-07
3	9852	11.71	2.10264e-07
3	9945	11.81	1.95496e-07
3	10038	11.91	1.79874e-07
3	10134	12.01	1.63833e-07
3	10227	12.11	1.47736e-07
3	10320	12.21	1.3188e-07
3	10413	12.31	1.16508e-07
3	10506	12.41	1.01807e-07
3	10599	12.51	8.79222e-08
3	10692	12.61	7.49541e-08
3	10785	12.71	6.29711e-08
3	10878	12.81	5.20114e-08
3	10971	12.91	4.20883e-08
3	11067	13.01	3.3193e-08
3	11160	13.11	2.53003e-08
3	11253	13.21	1.83718e-08
3	11346	13.31	1.23581e-08
3	11439	13.41	7.20348e-09
3	11532	13.51	2.84537e-09
3	11625	13.61	-7.80886e-10
3	11718	13.71	-3.74136e-09
3	11811	13.81	-6.10285e-09
3	11904	13.91	-7.93072e-09
3	12000	14.01	-9.28821e-09
3	12093	14.11	-1.0235e-08
3	12186	14.21	-1.08283e-08
3	12279	14.31	-1.11211e-08
3	12372	14.41	-1.11612e-08
3	12465	14.51	-1.09946e-08
3	12558	14.61	-1.06599e-08
3	12651	14.71	-1.01945e-08
3	12744	14.81	-9.62999e-09
3	12837	14.91	-8.99405e-09
3	12933	15.01	-8.31086e-09
3	13026	15.11	-7.60103e-09
3	13119	15.21	-6.88338e-09
3	13212	15.31	-6.17071e-09
3	13305	15.41	-5.47544e-09
3	13398	15.51	-4.80682e-09
3	13491	15.61	-4.17266e-09
3	13584	15.71	-3.57687e-09
3	13677	15.81	-3.02443e-09
3	13770	15.91	-2.51674e-09
3	13866	16.01	-2.05489e-09
3	13959	16.11	-1.63958e-09
3	14052	16.21	-1.26903e-09
3	14145	16.31	-9.42535e-10
3	14238	16.41	-6.57963e-10
3	14331	16.51	-4.1247e-10
3	14424	16.61	-2.04636e-10
3	14517	16.71	-2.91323e-11
3	14610	16.81	1.14753e-10
3	14703	16.91	2.30926e-10
3	14799	17.01	3.22231e-10
3	14892	17.11	3.91154e-10
3	14985	17.21	4.40892e-10
3	15078	17.31	4.73577e-10
3	15171	17.41	4.92051e-10
3	15264	17.51	4.98446e-10
3	15357	17.61	4.94893e-10
3	15450	17.71	4.82814e-10
3	15543	17.81	4.6434e-10
3	15636	17.91	4.40892e-10
3	15732	18.01	4.13536e-10
3	15825	18.11	3.83693e-10
3	15918	18.21	3.51719e-10
3	16011	18.31	3.19744e-10
3	16104	18.41	2.8777e-10
3	16197	18.51	2.55795e-10
3	16290	18.61	2.25953e-10
3	16383	18.71	1.97531e-10
3	16476	18.81	1.6982e-10
3	16569	18.91	1.44951e-10
3	16665	19.01	1.21503e-10
3	16758	19.11	1.00187e-10
3	16851	19.21	8.10019e-11
3	16944	19.31	6.32383e-11
3	17037	19.41	4.86722e-11
3	17130	19.51	3.44613e-11
3	17223	19.61	2.34479e-11
3	17316	19.71	1.27898e-11
3	17409	19.81	4.9738e-12
3	17502	19.91	-2.13163e-12
3	17598	20.01	-8.17124e-12
3	17691	20.11	-1.1724e-11
3	17784	20.21	-1.52767e-11
3	17877	20.31	-1.88294e-11
3	17970	20.41	-2.02505e-11
3	18063	20.51	-2.02505e-11
3	18156	20.61	-2.02505e-11
3	18249	20.71	-2.02505e-11
3	18342	20.81	-2.02505e-11
3	18435	20.91	-2.02505e-11
3	18531	21.01	-2.02505e-11
3	18624	21.11	-2.02505e-11
3	18717	21.21	-2.02505e-11
3	18810	21.31	-1.88294e-11
3	18903	21.41	-1.7053e-11
3	18996	21.51	-1.52767e-11
3	19089	21.61	-1.38556e-11
3	19182	21.71	-1.24345e-11
3	19275	21.81	-1.13687e-11
3	19368	21.91	-1.03029e-11
3	19464	22.01	-9.23706e-12
3	19557	22.11	-8.52651e-12
3	19650	22.21	-7.4607e-12
3	19743	22.31	-6.75016e-12
3	19836	22.41	-6.03961e-12
3	19929	22.51	-5.68434e-12
3	20022	22.61	-4.9738e-12
3	20115	22.71	-4.61853e-12
3	20208	22.81	-4.26326e-12
3	20301	22.91	-3.90799e-12
3	20397	23.01	-3.55271e-12
3	20490	23.11	-3.19744e-12
3	20583	23.21	-2.84217e-12
3	20676	23.31	-2.4869e-12
3	20769	23.41	-2.13163e-12
3	20862	23.51	-2.13163e-12
3	20955	23.61	-1.77636e-12
3	21048	23.71	-1.77636e-12
3	21141	23.81	-1.42109e-12
3	21234	23.91	-1.42109e-12
3	21330	24.01	-1.06581e-12
3	21423	24.11	-1.06581e-12
3	21516	24.21	-1.06581e-12
3	21609	24.31	-1.06581e-12
3	21702	24.41	-7.10543e-13
3	21795	24.51	-7.10543e-13
3	21888	24.61	-7.10543e-13
3	21981	24.71	-7.10543e-13
3	22074	24.81	-7.10543e-13
3	22167	24.91	-3.55271e-13
3	22263	25.01	-3.55271e-13
3	22356	25.11	-3.55271e-13
3	22449	25.21	-3.55271e-13
3	22542	25.31	-3.55271e-13
3	22635	25.41	-3.55271e-13
3	22728	25.51	-3.55271e-13
3	22821	25.61	-3.55271e-13
3	22914	25.71	-3.55271e-13
3	23007	25.81	-3.55271e-13
3	23100	25.91	0
3	23196	26.01	0
3	23289	26.11	0
3	23382	26.21	0
3	23475	26.31	0
3	23568	26.41	0
3	23661	26.51	0
3	23754	26.61	0
3	23847	26.71	0
3	23940	26.81	0
3	24033	26.91	0
3	24129	27.01	0
3	24222	27.11	0
3	24315	27.21	0
3	24408	27.31	0
3	24501	27.41	0
3	24594	27.51	0
3	24687	27.61	0
3	24780	27.71	0
3	24873	27.81	0
3	24966	27.91	0
3	25062	28.01	0
3	25155	28.11	0
3	25248	28.21	0
3	25341	28.31	0
3	25434	28.41	0
3	25527	28.51	0
3	25620	28.61	0
3	25713	28.71	0
3	25806	28.81	0
3	25899	28.91	0
3	25995	29.01	0
3	26088	29.11	0
3	26181	29.21	0
3	26317	29.31	0
3	26409	29.41	0
3	26501	29.51	0
3	26593	29.61	0
3	26685	29.71	0
3	26777	29.81	0
3	26869	29.91	0
3	26964	30.01	0
3	27056	30.11	0
3	27148	30.21	0
3	27240	30.31	0
3	27332	30.41	0
3	27424	30.51	0
3	27516	30.61	0
3	27608	30.71	0
3	27700	30.81	0
3	27792	30.91	0
3	27887	31.01	0
3	27979	31.11	0
3	28071	31.21	0
3	28163	31.31	0
3	28255	31.41	0
3	28347	31.51	0
3	28439	31.61	0
3	28531	31.71	0
3	28623	31.81	0
3	28715	31.91	0
3	28810	32.01	0
3	28902	32.11	0
3	28994	32.21	0
3	29086	32.31	0
3	29178	32.41	0
3	29270	32.51	0
3	29362	32.61	0
3	29454	32.71	0
3	29546	32.81	0
3	29638	32.91	0
3	29733	33.01	0
3	29825	33.11	0
3	29917	33.21	0
3	30009	33.31	0
3	30101	33.41	0
3	30322	33.51	0
3	30413	33.61	0
3	30504	33.71	0
3	30595	33.81	0
3	30686	33.91	0
3	30780	34.01	0
3	30871	34.11	0
3	30962	34.21	0
3	31053	34.31	0
3	31144	34.41	0
3	31235	34.51	0
3	31326	34.61	0
3	31417	34.71	0
3	31508	34.81	0
3	31599	34.91	0
3	31693	35.01	0
3	31784	35.11	0
3	31875	35.21	0
3	31966	35.31	0
3	32057	35.41	0
3	32148	35.51	0
3	32239	35.61	0
3	32330	35.71	0
3	32421	35.81	0
3	32512	35.91	0
3	32606	36.01	0
3	32697	36.11	0
3	32788	36.21	0
3	32879	36.31	0
3	32970	36.41	0
3	33061	36.51	0
3	33152	36.61	0
3	33243	36.71	0
3	33334	36.81	0
3	33425	36.91	0
3	33519	37.01	0
3	33610	37.11	0
3	33701	37.21	0
3	33792	37.31	0
3	33883	37.41	0
3	33974	37.51	0
3	34065	37.61	0
3	34156	37.71	0
3	34247	37.81	0
3	34338	37.91	0
3	34432	38.01	0
3	34523	38.11	0
3	34614	38.21	0
3	34705	38.31	0
3	34796	38.41	0
3	34887	38.51	0
3	34978	38.61	0
3	35069	38.71	0
3	35160	38.81	0
3	35251	38.91	0
3	35345	39.01	0
3	35436	39.11	0
3	35527	39.21	0
3	35618	39.31	0
3	35709	39.41	0
3	35800	39.51	0
3	35891	39.61	0
3	35982	39.71	0
3	36073	39.81	0
3	36164	39.91	0
3	36258	40.01	0
3	36349	40.11	0
3	36440	40.21	0
3	36531	40.31	0
3	36622	40.41	0
3	36713	40.51	0
3	36804	40.61	0
3	36895	40.71	0
3	36986	40.81	0
3	37077	40.91	0
3	37171	41.01	0
3	37262	41.11	0
3	37353	41.21	0
3	37444	41.31	0
3	37535	41.41	0
3	37626	41.51	0
3	37717	41.61	0
3	37808	41.71	0
3	37899	41.81	0
3	37990	41.91	0
3	38084	42.01	0
3	38175	42.11	0
3	38266	42.21	0
3	38357	42.31	0
3	38448	42.41	0
3	38539	42.51	0
3	38630	42.61	0
3	38721	42.71	0
3	38812	42.81	0
3	38903	42.91	0
3	38997	43.01	0
3	39088	43.11	0
3	39179	43.21	0
3	39270	43.31	0
3	39361	43.41	0
3	39452	43.51	0
3	39543	43.61	0
3	39634	43.71	0
3	39725	43.81	0
3	39816	43.91	0
3	39910	44.01	0
3	40001	44.11	0
3	40092	44.21	0
3	40183	44.31	0
3	40274	44.41	0
3	40365	44.51	0
3	40456	44.61	0
3	40547	44.71	0
3	40638	44.81	0
3	40729	44.91	0
3	40823	45.01	0
3	40914	45.11	0
3	41005	45.21	0
3	41096	45.31	0
3	41187	45.41	0
3	41278	45.51	0
3	41369	45.61	0
3	41460	45.71	0
3	41551	45.81	0
3	41642	45.91	0
3	41736	46.01	0
3	41827	46.11	0
3	41918	46.21	0
3	42009	46.31	0
3	42100	46.41	0
3	42191	46.51	0
3	42282	46.61	0
3	42373	46.71	0
3	42464	46.81	0
3	42555	46.91	0
3	42649	47.01	0
3	42740	47.11	0
3	42831	47.21	0
3	42922	47.31	0
3	43013	47.41	0
3	43104	47.51	0
3	43195	47.61	0
3	43286	47.71	0
3	43377	47.81	0
3	43468	47.91	0
3	43562	48.01	0
3	43653	48.11	0
3	43744	48.21	0
3	43835	48.31	0
3	43926	48.41	0
3	44017	48.51	0
3	44108	48.61	0
3	44199	48.71	0
3	44290	48.81	0
3	44381	48.91	0
3	44475	49.01	0
3	44566	49.11	0
3	44657	49.21	0
3	44748	49.31	0
3	44839	49.41	0
3	44930	49.51	0
3	45021	49.61	0
3	45112	49.71	0
3	45203	49.81	0
3	45294	49.91	0
3	45388	50.01	0
3	45479	50.11	0
3	45570	50.21	0
3	45661	50.31	0
3	45752	50.41	0
3	45843	50.51	0
3	45934	50.61	0
3	46025	50.71	0
3	46116	50.81	0
3	46207	50.91	0
3	46301	51.01	0
3	46392	51.11	0
3	46483	51.21	0
3	46574	51.31	0
3	46665	51.41	0
3	46756	51.51	0
3	46847	51.61	0
3	46938	51.71	0
3	47029	51.81	0
3	47120	51.91	0
3	47214	52.01	0
3	47305	52.11	0
3	47396	52.21	0
3	47487	52.31	0
3	47578	52.41	0
3	47669	52.51	0
3	47760	52.61	0
3	47851	52.71	0
3	47942	52.81	0
3	48033	52.91	0
3	48127	53.01	0
3	48218	53.11	0
3	48309	53.21	0
3	48400	53.31	0
3	48491	53.41	0
3	48582	53.51	0
3	48673	53.61	0
3	48764	53.71	0
3	48855	53.81	0
3	48946	53.91	0
3	49040	54.01	0
3	49131	54.11	0
3	49222	54.21	0
3	49313	54.31	0
3	49404	54.41	0
3	49495	54.51	0
3	49586	54.61	0
3	49677	54.71	0
3	49768	54.81	0
3	49859	54.91	0
3	49953	55.01	0
3	50044	55.11	0
3	50135	55.21	0
3	50226	55.31	0
3	50317	55.41	0
3	50408	55.51	0
3	50499	55.61	0
3	50590	55.71	0
3	50681	55.81	0
3	50772	55.91	0
3	50866	56.01	0
3	50957	56.11	0
3	51048	56.21	0
3	51139	56.31	0
3	51230	56.41	0
3	51321	56.51	0
3	51412	56.61	0
3	51503	56.71	0
3	51594	56.81	0
3	51685	56.91	0
3	51779	57.01	0
3	51870	57.11	0
3	51961	57.21	0
3	52052	57.31	0
3	52143	57.41	0
3	52234	57.51	0
3	52325	57.61	0
3	52416	57.71	0
3	52507	57.81	0
3	52598	57.91	0
3	52692	58.01	0
3	52783	58.11	0
3	52874	58.21	0
3	52965	58.31	0
3	53056	58.41	0
3	53147	58.51	0
3	53238	58.61	0
3	53329	58.71	0
3	53420	58.81	0
3	53511	58.91	0
3	53605	59.01	0
3	53696	59.11	0
3	53787	59.21	0
3	53878	59.31	0
3	53969	59.41	0
3	54060	59.51	0
3	54151	59.61	0
3	54242	59.71	0
3	54333	59.81	0
3	54424	59.91	0
3	54518	60.01	0
3	54609	60.11	0
3	54700	60.21	0
3	54791	60.31	0
3	54882	60.41	0
3	54973	60.51	0
3	55064	60.61	0
3	55155	60.71	0
3	55246	60.81	0
3	55337	60.91	0
3	55431	61.01	0
3	55522	61.11	0
3	55613	61.21	0
3	55704	61.31	0
3	55795	61.41	0
3	55886	61.51	0
3	55977	61.61	0
3	56068	61.71	0
3	56159	61.81	0
3	56250	61.91	0
3	56344	62.01	0
3	56435	62.11	0
3	56526	62.21	0
3	56617	62.31	0
3	56708	62.41	0
3	56799	62.51	0
3	56890	62.61	0
3	56981	62.71	0
3	57072	62.81	0
3	57163	62.91	0
3	57257	63.01	0
3	57348	63.11	0
3	57439	63.21	0
3	57530	63.31	0
3	57621	63.41	0
3	57712	63.51	0
3	57803	63.61	0
3	57894	63.71	0
3	57985	63.81	0
3	58076	63.91	0
3	58170	64.01	0
3	58261	64.11	0
3	58352	64.21	0
3	58443	64.31	0
3	58534	64.41	0
3	58625	64.51	0
3	58716	64.61	0
3	58807	64.71	0
3	58898	64.81	0
3	58989	64.91	0
3	59083	65.01	0
3	59174	65.11	0
3	59265	65.21	0
3	59356	65.31	0
3	59447	65.41	0
3	59538	65.51	0
3	59629	65.61	0
3	59720	65.71	0
3	59811	65.81	0
3	59902	65.91	0
3	59996	66.01	0
3	60087	66.11	0
3	60178	66.21	0
3	60269	66.31	0
3	60360	66.41	0
3	60451	66.51	0
3	60542	66.61	0
3	60633	66.71	0
3	60724	66.81	0
3	60815	66.91	0
3	60909	67.01	0
3	61000	67.11	0
3	61091	67.21	0
3	61182	67.31	0
3	61273	67.41	0
3	61364	67.51	0
3	61455	67.61	0
3	61546	67.71	0
3	61637	67.81	0
3	61728	67.91	0
3	61822	68.01	0
3	61913	68.11	0
3	62004	68.21	0
3	62095	68.31	0
3	62186	68.41	0
3	62277	68.51	0
3	62368	68.61	0
3	62459	68.71	0
3	62550	68.81	0
3	62641	68.91	0
3	62735	69.01	0
3	62826	69.11	0
3	62917	69.21	0
3	63008	69.31	0
3	63099	69.41	0
3	63190	69.51	0
3	63281	69.61	0
3	63372	69.71	0
3	63463	69.81	0
3	63554	69.91	0
3	63648	70.01	0
3	63739	70.11	0
3	63830	70.21	0
3	63921	70.31	0
3	64012	70.41	0
3	64103	70.51	0
3	64194	70.61	0
3	64285	70.71	0
3	64376	70.81	0
3	64467	70.91	0
3	64561	71.01	0
3	64652	71.11	0
3	64743	71.21	0
3	64834	71.31	0
3	64925	71.41	0
3	65016	71.51	0
3	65107	71.61	0
3	65198	71.71	0
3	65289	71.81	0
3	65380	71.91	0
3	65474	72.01	0
3	65565	72.11	0
3	65656	72.21	0
3	65747	72.31	0
3	65838	72.41	0
3	65929	72.51	0
3	66020	72.61	0
3	66111	72.71	0
3	66202	72.81	0
3	66293	72.91	0
3	66387	73.01	0
3	66478	73.11	0
3	66569	73.21	0
3	66660	73.31	0
3	66751	73.41	0
3	66842	73.51	0
3	66933	73.61	0
3	67024	73.71	0
3	67115	73.81	0
3	67206	73.91	0
3	67300	74.01	0
3	67391	74.11	0
3	67482	74.21	0
3	67573	74.31	0
3	67664	74.41	0
3	67755	74.51	0
3	67846	74.61	0
3	67937	74.71	0
3	68028	74.81	0
3	68119	74.91	0
3	68213	75.01	0
3	68304	75.11	0
3	68395	75.21	0
3	68486	75.31	0
3	68577	75.41	0
3	68668	75.51	0
3	68759	75.61	0
3	68850	75.71	0
3	68941	75.81	0
3	69032	75.91	0
3	69126	76.01	0
3	69217	76.11	0
3	69308	76.21	0
3	69399	76.31	0
3	69490	76.41	0
3	69581	76.51	0
3	69672	76.61	0
3	69763	76.71	0
3	69854	76.81	0
3	69945	76.91	0
3	70039	77.01	0
3	70130	77.11	0
3	70221	77.21	0
3	70312	77.31	0
3	70403	77.41	0
3	70494	77.51	0
3	70585	77.61	0
3	70676	77.71	0
3	70767	77.81	0
3	70858	77.91	0
3	70952	78.01	0
3	71043	78.11	0
3	71134	78.21	0
3	71225	78.31	0
3	71316	78.41	0
3	71407	78.51	0
3	71498	78.61	0
3	71589	78.71	0
3	71680	78.81	0
3	71771	78.91	0
3	71865	79.01	0
3	71956	79.11	0
3	72047	79.21	0
3	72138	79.31	0
3	72229	79.41	0
3	72320	79.51	0
3	72411	79.61	0
3	72502	79.71	0
3	72593	79.81	0
3	72684	79.91	0
3	72778	80.01	0
3	72869	80.11	0
3	72960	80.21	0
3	73051	80.31	0
3	73142	80.41	0
3	73233	80.51	0
3	73324	80.61	0
3	73415	80.71	0
3	73506	80.81	0
3	73597	80.91	0
3	73691	81.01	0
3	73782	81.11	0
3	73873	81.21	0
3	73964	81.31	0
3	74055	81.41	0
3	74146	81.51	0
3	74237	81.61	0
3	74328	81.71	0
3	74419	81.81	0
3	74510	81.91	0
3	74604	82.01	0
3	74695	82.11	0
3	74786	82.21	0
3	74877	82.31	0
3	74968	82.41	0
3	75059	82.51	0
3	75150	82.61	0
3	75241	82.71	0
3	75332	82.81	0
3	75423	82.91	0
3	75517	83.01	0
3	75608	83.11	0
3	75699	83.21	0
3	75790	83.31	0
3	75881	83.41	0
3	75972	83.51	0
3	76063	83.61	0
3	76154	83.71	0
3	76245	83.81	0
3	76336	83.91	0
3	76430	84.01	0
3	76521	84.11	0
3	76612	84.21	0
3	76703	84.31	0
3	76794	84.41	0
3	76885	84.51	0
3	76976	84.61	0
3	77067	84.71	0
3	77158	84.81	0
3	77249	84.91	0
3	77343	85.01	0
3	77434	85.11	0
3	77525	85.21	0
3	77616	85.31	0
3	77707	85.41	0
3	77798	85.51	0
3	77889	85.61	0
3	77980	85.71	0
3	78071	85.81	0
3	78162	85.91	0
3	78256	86.01	0
3	78347	86.11	0
3	78438	86.21	0
3	78529	86.31	0
3	78620	86.41	0
3	78711	86.51	0
3	78802	86.61	0
3	78893	86.71	0
3	78984	86.81	0
3	79075	86.91	0
3	79169	87.01	0
3	79260	87.11	0
3	79351	87.21	0
3	79442	87.31	0
3	79533	87.41	0
3	79624	87.51	0
3	79715	87.61	0
3	79806	87.71	0
3	79897	87.81	0
3	79988	87.91	0
3	80082	88.01	0
3	80173	88.11	0
3	80264	88.21	0
3	80355	88.31	0
3	80446	88.41	0
3	80537	88.51	0
3	80628	88.61	0
3	80719	88.71	0
3	80810	88.81	0
3	80901	88.91	0
3	80995	89.01	0
3	81086	89.11	0
3	81177	89.21	0
3	81268	89.31	0
3	81359	89.41	0
3	81450	89.51	0
3	81541	89.61	0
3	81632	89.71	0
3	81723	89.81	0
3	81814	89.91	0
3	81908	90.01	0
3	81999	90.11	0
3	82090	90.21	0
3	82181	90.31	0
3	82272	90.41	0
3	82363	90.51	0
3	82454	90.61	0
3	82545	90.71	0
3	82636	90.81	0
3	82727	90.91	0
3	82821	91.01	0
3	82912	91.11	0
3	83003	91.21	0
3	83094	91.31	0
3	83185	91.41	0
3	83276	91.51	0
3	83367	91.61	0
3	83458	91.71	0
3	83549	91.81	0
3	83640	91.91	0
3	83734	92.01	0
3	83825	92.11	0
3	83916	92.21	0
3	84007	92.31	0
3	84098	92.41	0
3	84189	92.51	0
3	84280	92.61	0
3	84371	92.71	0
3	84462	92.81	0
3	84553	92.91	0
3	84647	93.01	0
3	84738	93.11	0
3	84829	93.21	0
3	84920	93.31	0
3	85011	93.41	0
3	85102	93.51	0
3	85193	93.61	0
3	85284	93.71	0
3	85375	93.81	0
3	85466	93.91	0
3	85560	94.01	0
3	85651	94.11	0
3	85742	94.21	0
3	85833	94.31	0
3	85924	94.41	0
3	86015	94.51	0
3	86106	94.61	0
3	86197	94.71	0
3	86288	94.81	0
3	86379	94.91	0
3	86473	95.01	0
3	86564	95.11	0
3	86655	95.21	0
3	86746	95.31	0
3	86837	95.41	0
3	86928	95.51	0
3	87019	95.61	0
3	87110	95.71	0
3	87201	95.81	0
3	87292	95.91	0
3	87386	96.01	0
3	87477	96.11	0
3	87568	96.21	0
3	87659	96.31	0
3	87750	96.41	0
3	87841	96.51	0
3	87932	96.61	0
3	88023	96.71	0
3	88114	96.81	0
3	88205	96.91	0
3	88299	97.01	0
3	88390	97.11	0
3	88481	97.21	0
3	88572	97.31	0
3	88663	97.41	0
3	88754	97.51	0
3	88845	97.61	0
3	88936	97.71	0
3	89027	97.81	0
3	89118	97.91	0
3	89212	98.01	0
3	89303	98.11	0
3	89394	98.21	0
3	89485	98.31	0
3	89576	98.41	0
3	89667	98.51	0
3	89758	98.61	0
3	89849	98.71	0
3	89940	98.81	0
3	90031	98.91	0
3	90125	99.01	0
3	90216	99.11	0
3	90307	99.21	0
3	90398	99.31	0
3	90489	99.41	0
3	90580	99.51	0
3	90671	99.61	0
3	90762	99.71	0
3	90853	99.81	0
3	90944	99.91	0
4	113	1.11	-0.00437036
4	204	1.21	-0.00426837
4	295	1.31	-0.00410815
4	386	1.41	-0.00390303
4	477	1.51	-0.00366476
4	568	1.61	-0.00340356
4	659	1.71	-0.00312825
4	750	1.81	-0.00284628
4	841	1.91	-0.00256392
4	935	2.01	-0.0022863
4	1026	2.11	-0.00201755
4	1117	2.21	-0.00176089
4	1208	2.31	-0.00151876
4	1299	2.41	-0.00129289
4	1390	2.51	-0.00108441
4	1481	2.61	-0.00089393
4	1572	2.71	-0.000721638
4	1663	2.81	-0.000567355
4	1754	2.91	-0.000430614
4	1848	3.01	-0.000310715
4	1939	3.11	-0.000206783
4	2030	3.21	-0.000117814
4	2121	3.31	-4.27149e-05
4	2212	3.41	1.96584e-05
4	2303	3.51	7.04736e-05
4	2394	3.61	0.000110896
4	2485	3.71	0.000142067
4	2576	3.81	0.00016509
4	2667	3.91	0.000181016
4	2761	4.01	0.000190834
4	2852	4.11	0.000195466
4	2943	4.21	0.00019576
4	3034	4.31	0.000192489
4	3125	4.41	0.000186354
4	3216	4.51	0.000177979
4	3307	4.61	0.000167916
4	3398	4.71	0.000156649
4	3489	4.81	0.000144597
4	3580	4.91	0.000132116
4	3674	5.01	0.000119508
4	3765	5.11	0.000107021
4	3856	5.21	9.48587e-05
4	3947	5.31	8.31796e-05
4	4038	5.41	7.21068e-05
4	4129	5.51	6.17299e-05
4	4220	5.61	5.21101e-05
4	4311	5.71	4.32839e-05
4	4402	5.81	3.52669e-05
4	4493	5.91	2.80577e-05
4	4587	6.01	2.16404e-05
4	4678	6.11	1.59878e-05
4	4769	6.21	1.1064e-05
4	4860	6.31	6.82631e-06
4	4951	6.41	3.22748e-06
4	5042	6.51	2.17307e-07
4	5133	6.61	-2.25598e-06
4	5224	6.71	-4.24448e-06
4	5315	6.81	-5.79961e-06
4	5406	6.91	-6.97134e-06
4	5500	7.01	-7.80753e-06
4	5591	7.11	-8.35346e-06
4	5682	7.21	-8.65149e-06
4	5773	7.31	-8.7408e-06
4	5864	7.41	-8.6573e-06
4	5955	7.51	-8.43352e-06
4	6046	7.61	-8.09868e-06
4	6137	7.71	-7.67874e-06
4	6228	7.81	-7.19651e-06
4	6319	7.91	-6.67185e-06
4	6413	8.01	-6.12177e-06
4	6504	8.11	-5.56072e-06
4	6595	8.21	-5.00073e-06
4	6686	8.31	-4.45164e-06
4	6777	8.41	-3.92136e-06
4	6868	8.51	-3.41601e-06
4	6959	8.61	-2.94018e-06
4	7050	8.71	-2.4971e-06
4	7141	8.81	-2.08883e-06
4	7232	8.91	-1.71644e-06
4	7326	9.01	-1.38016e-06
4	7417	9.11	-1.07955e-06
4	7508	9.21	-8.13576e-07
4	7599	9.31	-5.80794e-07
4	7690	9.41	-3.79414e-07
4	7781	9.51	-2.07408e-07
4	7872	9.61	-6.25825e-08
4	7963	9.71	5.73472e-08
4	8054	9.81	1.54703e-07
4	8145	9.91	2.31794e-07
4	8268	10.01	2.90877e-07
4	8361	10.11	3.3413e-07
[...]
31	78042	85.799178999052	2
31	78133	85.899171414615	2
31	78224	85.999176832846	2
31	78318	86.099169253745	2
31	78409	86.199174677314	2
31	78500	86.299180103551	2
31	78591	86.399172532456	2
31	78682	86.499177964029	2
31	78773	86.599170398272	2
31	78864	86.699175835183	2
31	78955	86.799168274763	2
31	79046	86.899173717011	2
31	79137	86.999179161928	2
31	79231	87.099171609513	2
31	79322	87.199177059766	2
31	79413	87.299169512689	2
31	79504	87.399174968279	2
31	79595	87.499180426538	2
31	79686	87.599172887465	2
31	79777	87.699178351062	2
31	79868	87.799170817327	2
31	79959	87.89917628626	2
31	80050	87.999168757861	2
31	80144	88.099174232132	2
31	80235	88.199179709071	2
31	80326	88.299172188678	2
31	80417	88.399177670953	2
31	80508	88.499170155897	2
31	80599	88.59917564351	2
31	80690	88.699168133791	2
31	80781	88.799173626741	2
31	80872	88.899179122359	2
31	80963	88.999171620646	2
31	81057	89.099177121601	2
31	81148	89.199169625225	2
31	81239	89.299175131518	2
31	81330	89.399167640479	2
31	81421	89.499173152108	2
31	81512	89.599178666405	2
31	81603	89.699171183372	2
31	81694	89.799176703007	2
31	81785	89.89916922531	2
31	81876	89.999174750281	2
31	81970	90.099180277922	2
31	82061	90.199172808231	2
31	82152	90.299178341209	2
31	82243	90.399170876854	2
31	82334	90.499176415169	2
31	82425	90.599168956152	2
31	82516	90.699174499803	2
31	82607	90.799180046123	2
31	82698	90.899172595111	2
31	82789	90.999178146768	2
31	82883	91.099170701093	2
31	82974	91.199176258088	2
31	83065	91.299168817751	2
31	83156	91.399174380082	2
31	83247	91.499179945081	2
31	83338	91.59917251275	2
31	83429	91.699178083087	2
31	83520	91.799170656092	2
31	83611	91.899176231765	2
31	83702	91.999168810107	2
31	83796	92.099174391118	2
31	83887	92.199179974797	2
31	83978	92.299172561145	2
31	84069	92.399178150161	2
31	84160	92.499170741846	2
31	84251	92.599176336199	2
31	84342	92.699168933221	2
31	84433	92.799174532912	2
31	84524	92.89918013527	2
31	84615	92.999172740297	2
31	84709	93.099178347992	2
31	84800	93.199170958357	2
31	84891	93.29917657139	2
31	84982	93.399169187091	2
31	85073	93.49917480546	2
31	85164	93.599180426499	2
31	85255	93.699173050206	2
31	85346	93.799178676582	2
31	85437	93.899171305625	2
31	85528	93.999176937338	2
31	85622	94.099169571719	2
31	85713	94.199175208768	2
31	85804	94.299167848486	2
31	85895	94.399173490872	2
31	85986	94.499179135927	2
31	86077	94.59917178365	2
31	86168	94.699177434042	2
31	86259	94.799170087103	2
31	86350	94.899175742832	2
31	86441	94.999168401229	2
31	86535	95.099174062296	2
31	86626	95.199179726031	2
31	86717	95.299172392434	2
31	86808	95.399178061505	2
31	86899	95.499170733245	2
31	86990	95.599176407654	2
31	87081	95.699169084731	2
31	87172	95.799174764477	2
31	87263	95.899180446891	2
31	87354	95.999173131974	2
31	87448	96.099178819725	2
31	87539	96.199171510145	2
31	87630	96.299177203234	2
31	87721	96.39916989899	2
31	87812	96.499175597415	2
31	87903	96.599168298508	2
31	87994	96.699174002271	2
31	88085	96.799179708702	2
31	88176	96.899172417801	2
31	88267	96.999178129568	2
31	88361	97.099170844005	2
31	88452	97.19917656111	2
31	88543	97.299169280884	2
31	88634	97.399175003325	2
31	88725	97.499167728435	2
31	88816	97.599173456214	2
31	88907	97.699179186661	2
31	88998	97.799171919777	2
31	89089	97.899177655561	2
31	89180	97.999170394014	2
31	89274	98.099176135135	2
31	89365	98.199168878925	2
31	89456	98.299174625384	2
31	89547	98.399180374511	2
31	89638	98.499173126306	2
31	89729	98.59917888077	2
31	89820	98.699171637903	2
31	89911	98.799177397704	2
31	90002	98.899170160173	2
31	90093	98.999175925311	2
31	90187	99.099168693118	2
31	90278	99.199174463593	2
31	90369	99.299180236737	2
31	90460	99.399173012549	2
31	90551	99.49917879103	2
31	90642	99.599171572179	2
31	90733	99.699177355997	2
31	90824	99.799170142484	2
31	90915	99.899175931638	2
31	91006	99.999168723461	2
32	915	2	0
32	1828	3	0
32	2741	4	0
32	3654	5	0
32	4567	6	0
32	5480	7	0
32	6393	8	0
32	7306	9	0
32	8220	10	0
32	9179	11	0
32	10112	12	0
32	11045	13	0
32	11978	14	0
32	12911	15	0
32	13844	16	0
32	14777	17	0
32	15710	18	0
32	16643	19	0
32	17576	20	0
32	18509	21	0
32	19442	22	0
32	20375	23	0
32	21308	24	0
32	22241	25	0
32	23174	26	0
32	24107	27	0
32	25040	28	0
32	25973	29	0
32	26943	30	0
32	27866	31	0
32	28789	32	0
32	29712	33	0
32	30760	34	0
32	31673	35	0
32	32586	36	0
32	33499	37	0
32	34412	38	0
32	35325	39	0
32	36238	40	0
32	37151	41	0
32	38064	42	0
32	38977	43	0
32	39890	44	0
32	40803	45	0
32	41716	46	0
32	42629	47	0
32	43542	48	0
32	44455	49	0
32	45368	50	0
32	46281	51	0
32	47194	52	0
32	48107	53	0
32	49020	54	0
32	49933	55	0
32	50846	56	0
32	51759	57	0
32	52672	58	0
32	53585	59	0
32	54498	60	0
32	55411	61	0
32	56324	62	0
32	57237	63	0
32	58150	64	0
32	59063	65	0
32	59976	66	0
32	60889	67	0
32	61802	68	0
32	62715	69	0
32	63628	70	0
32	64541	71	0
32	65454	72	0
32	66367	73	0
32	67280	74	0
32	68193	75	0
32	69106	76	0
32	70019	77	0
32	70932	78	0
32	71845	79	0
32	72758	80	0
32	73671	81	0
32	74584	82	0
32	75497	83	0
32	76410	84	0
32	77323	85	0
32	78236	86	0
32	79149	87	0
32	80062	88	0
32	80975	89	0
32	81888	90	0
32	82801	91	0
32	83714	92	0
32	84627	93	0
32	85540	94	0
32	86453	95	0
32	87366	96	0
32	88279	97	0
32	89192	98	0
32	90105	99	0
32	91018	100	0
33	915	2	0.008241279507
33	1828	3	0.009368199487
33	2741	4	0.009368199513
33	3654	5	0.00936819952
33	4567	6	0.00936819952
33	5480	7	0.00938119952
33	6393	8	0.009368199519
33	7306	9	0.00936819951
33	8220	10	0.009368199506
33	9179	11	0.009414199269
33	10112	12	0.009381197043
33	11045	13	0.009368191952
33	11978	14	0.009368184693
33	12911	15	0.009368176128
33	13844	16	0.009368166946
33	14777	17	0.009368157639
33	15710	18	0.009368148541
33	16643	19	0.009368139882
33	17576	20	0.009381131787
33	18509	21	0.009368124324
33	19442	22	0.009368117524
33	20375	23	0.009368111379
33	21308	24	0.009368105869
33	22241	25	0.009368100948
33	23174	26	0.009381096582
33	24107	27	0.009368092721
33	25040	28	0.009368089312
33	25973	29	0.009368086317
33	26943	30	0.009517083691
33	27866	31	0.009368081391
33	28789	32	0.009368079379
33	29712	33	0.009368077622
33	30760	34	0.009804050283
33	31673	35	0.009367986388
33	32586	36	0.009367863114
33	33499	37	0.00938068957
33	34412	38	0.009367502071
33	35325	39	0.009367305589
33	36238	40	0.009367093991
33	37151	41	0.00937986322
33	38064	42	0.009366617386
33	38977	43	0.009366363323
33	39890	44	0.009366104499
33	40803	45	0.009378842981
33	41716	46	0.009365579966
33	42629	47	0.009365316001
33	43542	48	0.009378051393
33	44455	49	0.009364786337
33	45368	50	0.009377520956
33	46281	51	0.00936425533
33	47194	52	0.009363989512
33	48107	53	0.009376723554
33	49020	54	0.009363457476
33	49933	55	0.009376191299
33	50846	56	0.009375925046
33	51759	57	0.009362658726
33	52672	58	0.009375392346
33	53585	59	0.009362125928
33	54498	60	0.009374861183
33	55411	61	0.009374600526
33	56324	62	0.009361333675
33	57237	63	0.009374066825
33	58150	64	0.009373799972
33	59063	65	0.009360533122
33	59976	66	0.00937326627
33	60889	67	0.00937299942
33	61802	68	0.009372732567
33	62715	69	0.009359465716
33	63628	70	0.009372198865
33	64541	71	0.009371932014
33	65454	72	0.009371665162
33	66367	73	0.009371398311
33	67280	74	0.009371131461
33	68193	75	0.009370864609
33	69106	76	0.009370597756
33	70019	77	0.009370330906
33	70932	78	0.009370064055
33	71845	79	0.009369797204
33	72758	80	0.009369530351
33	73671	81	0.009369263501
33	74584	82	0.00936899665
33	75497	83	0.009368729799
33	76410	84	0.009368462947
33	77323	85	0.009368196095
33	78236	86	0.009367929245
33	79149	87	0.009380662393
33	80062	88	0.009367395542
33	80975	89	0.009367128691
33	81888	90	0.00936686184
33	82801	91	0.009366594989
33	83714	92	0.009379328136
33	84627	93	0.009366061286
33	85540	94	0.009365794434
33	86453	95	0.009378527584
33	87366	96	0.009365260731
33	88279	97	0.009364993881
33	89192	98	0.00937772703
33	90105	99	0.009364460178
33	91018	100	0.009377193326
34	915	2	0
34	1828	3	0
34	2741	4	0
34	3654	5	0
34	4567	6	0
34	5480	7	0
34	6393	8	0
34	7306	9	0
34	8220	10	0
34	9179	11	0
34	10112	12	0
34	11045	13	0
34	11978	14	0
34	12911	15	0
34	13844	16	0
34	14777	17	0
34	15710	18	0
34	16643	19	0
34	17576	20	0
34	18509	21	0
34	19442	22	0
34	20375	23	0
34	21308	24	0
34	22241	25	0
34	23174	26	0
34	24107	27	0
34	25040	28	0
34	25973	29	0
34	26943	30	0
34	27866	31	0
34	28789	32	0
34	29712	33	0
34	30760	34	0
34	31673	35	0
34	32586	36	0
34	33499	37	0
34	34412	38	0
34	35325	39	0
34	36238	40	0
34	37151	41	0
34	38064	42	0
34	38977	43	0
34	39890	44	0
34	40803	45	0
34	41716	46	0
34	42629	47	0
34	43542	48	0
34	44455	49	0
34	45368	50	0
34	46281	51	0
34	47194	52	0
34	48107	53	0
34	49020	54	0
34	49933	55	0
34	50846	56	0
34	51759	57	0
34	52672	58	0
34	53585	59	0
34	54498	60	0
34	55411	61	0
34	56324	62	0
34	57237	63	0
34	58150	64	0
34	59063	65	0
34	59976	66	0
34	60889	67	0
34	61802	68	0
34	62715	69	0
34	63628	70	0
34	64541	71	0
34	65454	72	0
34	66367	73	0
34	67280	74	0
34	68193	75	0
34	69106	76	0
34	70019	77	0
34	70932	78	0
34	71845	79	0
34	72758	80	0
34	73671	81	0
34	74584	82	0
34	75497	83	0
34	76410	84	0
34	77323	85	0
34	78236	86	0
34	79149	87	0
34	80062	88	0
34	80975	89	0
34	81888	90	0
34	82801	91	0
34	83714	92	0
34	84627	93	0
34	85540	94	0
34	86453	95	0
34	87366	96	0
34	88279	97	0
34	89192	98	0
34	90105	99	0
34	91018	100	0
35	916	2	1
35	1829	3	1
35	2742	4	1
35	3655	5	1
35	4568	6	1
35	5481	7	1
35	6394	8	1
35	7307	9	1
35	8221	10	1
35	9180	11	1
35	10113	12	1
35	11046	13	1
35	11979	14	1
35	12912	15	1
35	13845	16	1
35	14778	17	1
35	15711	18	1
35	16644	19	1
35	17577	20	1
35	18510	21	1
35	19443	22	1
35	20376	23	1
35	21309	24	1
35	22242	25	1
35	23175	26	1
35	24108	27	1
35	25041	28	1
35	25974	29	1
35	26944	30	1
35	27867	31	1
35	28790	32	1
35	29713	33	1
35	30761	34	1
35	31674	35	1
35	32587	36	1
35	33500	37	1
35	34413	38	1
35	35326	39	1
35	36239	40	1
35	37152	41	1
35	38065	42	1
35	38978	43	1
35	39891	44	1
35	40804	45	1
35	41717	46	1
35	42630	47	1
35	43543	48	1
35	44456	49	1
35	45369	50	1
35	46282	51	1
35	47195	52	1
35	48108	53	1
35	49021	54	1
35	49934	55	1
35	50847	56	1
35	51760	57	1
35	52673	58	1
35	53586	59	1
35	54499	60	1
35	55412	61	1
35	56325	62	1
35	57238	63	1
35	58151	64	1
35	59064	65	1
35	59977	66	1
35	60890	67	1
35	61803	68	1
35	62716	69	1
35	63629	70	1
35	64542	71	1
35	65455	72	1
35	66368	73	1
35	67281	74	1
35	68194	75	1
35	69107	76	1
35	70020	77	1
35	70933	78	1
35	71846	79	1
35	72759	80	1
35	73672	81	1
35	74585	82	1
35	75498	83	1
35	76411	84	1
35	77324	85	1
35	78237	86	1
35	79150	87	1
35	80063	88	1
35	80976	89	1
35	81889	90	1
35	82802	91	1
35	83715	92	1
35	84628	93	1
35	85541	94	1
35	86454	95	1
35	87367	96	1
35	88280	97	1
35	89193	98	1
35	90106	99	1
35	91019	100	1
36	916	2	0.00824129952
36	1829	3	0.009368199486
36	2742	4	0.009368199512
36	3655	5	0.00936819952
36	4568	6	0.00936819952
36	5481	7	0.00938119952
36	6394	8	0.009368199519
36	7307	9	0.00936819951
36	8221	10	0.009368199507
36	9180	11	0.009413199296
36	10113	12	0.009381197163
36	11046	13	0.00936819215
36	11979	14	0.009368184937
36	12912	15	0.00936817639
36	13845	16	0.009368167211
36	14778	17	0.009368157892
36	15711	18	0.009368148777
36	16644	19	0.009368140098
36	17577	20	0.009381131983
36	18510	21	0.009368124497
36	19443	22	0.009368117678
36	20376	23	0.009368111514
36	21309	24	0.009368105987
36	22242	25	0.009368101051
36	23175	26	0.00938109667
36	24108	27	0.009368092798
36	25041	28	0.009368089379
36	25974	29	0.009368086375
36	26944	30	0.009518129776
36	27867	31	0.009368081434
36	28790	32	0.009368079415
36	29713	33	0.009368077653
36	30761	34	0.009737908989
36	31674	35	0.009367984655
36	32587	36	0.009367859288
36	33500	37	0.009380684917
36	34413	38	0.009367498997
36	35326	39	0.009367300663
36	36239	40	0.009367089114
36	37152	41	0.009379858355
36	38065	42	0.009366612523
36	38978	43	0.009366357509
36	39891	44	0.009366099721
36	40804	45	0.009378838196
36	41717	46	0.009365575176
36	42630	47	0.009365311207
36	43543	48	0.009378046596
36	44456	49	0.009364781538
36	45369	50	0.009377516154
36	46282	51	0.009364250527
36	47195	52	0.009363984706
36	48108	53	0.009376718749
36	49021	54	0.009363452668
36	49934	55	0.009376186491
36	50847	56	0.009375920237
36	51760	57	0.009362653915
36	52673	58	0.009375387536
36	53586	59	0.009362121117
36	54499	60	0.009374856538
36	55412	61	0.009374595708
36	56325	62	0.009361328857
36	57238	63	0.009374062007
36	58151	64	0.009373795154
36	59064	65	0.009360528305
36	59977	66	0.009373261451
36	60890	67	0.009372994603
36	61803	68	0.009372727748
36	62716	69	0.009359460898
36	63629	70	0.009372194047
36	64542	71	0.009371927196
36	65455	72	0.009371660345
36	66368	73	0.009371393492
36	67281	74	0.009371126644
36	68194	75	0.00937085979
36	69107	76	0.009370592938
36	70020	77	0.009370326088
36	70933	78	0.009370059237
36	71846	79	0.009369792387
36	72759	80	0.009369525532
36	73672	81	0.009369258684
36	74585	82	0.009368991831
36	75498	83	0.009368724981
36	76411	84	0.009368458129
36	77324	85	0.009368191277
36	78237	86	0.009367924427
36	79150	87	0.009380657575
36	80063	88	0.009367390725
36	80976	89	0.009367123872
36	81889	90	0.009366857023
36	82802	91	0.00936659017
36	83715	92	0.009379323318
36	84628	93	0.009366056468
36	85541	94	0.009365789616
36	86454	95	0.009378522767
36	87367	96	0.009365255912
36	88280	97	0.009364989064
36	89193	98	0.009377722211
36	90106	99	0.00936445536
36	91019	100	0.009377188508
37	916	2	0
37	1829	3	0
37	2742	4	0
37	3655	5	0
37	4568	6	0
37	5481	7	0
37	6394	8	0
37	7307	9	0
37	8221	10	0
37	9180	11	0
37	10113	12	0
37	11046	13	0
37	11979	14	0
37	12912	15	0
37	13845	16	0
37	14778	17	0
37	15711	18	0
37	16644	19	0
37	17577	20	0
37	18510	21	0
37	19443	22	0
37	20376	23	0
37	21309	24	0
37	22242	25	0
37	23175	26	0
37	24108	27	0
37	25041	28	0
37	25974	29	0
37	26944	30	0
37	27867	31	0
37	28790	32	0
37	29713	33	0
37	30761	34	0
37	31674	35	0
37	32587	36	0
37	33500	37	0
37	34413	38	0
37	35326	39	0
37	36239	40	0
37	37152	41	0
37	38065	42	0
37	38978	43	0
37	39891	44	0
37	40804	45	0
37	41717	46	0
37	42630	47	0
37	43543	48	0
37	44456	49	0
37	45369	50	0
37	46282	51	0
37	47195	52	0
37	48108	53	0
37	49021	54	0
37	49934	55	0
37	50847	56	0
37	51760	57	0
37	52673	58	0
37	53586	59	0
37	54499	60	0
37	55412	61	0
37	56325	62	0
37	57238	63	0
37	58151	64	0
37	59064	65	0
37	59977	66	0
37	60890	67	0
37	61803	68	0
37	62716	69	0
37	63629	70	0
37	64542	71	0
37	65455	72	0
37	66368	73	0
37	67281	74	0
37	68194	75	0
37	69107	76	0
37	70020	77	0
37	70933	78	0
37	71846	79	0
37	72759	80	0
37	73672	81	0
37	74585	82	0
37	75498	83	0
37	76411	84	0
37	77324	85	0
37	78237	86	0
37	79150	87	0
37	80063	88	0
37	80976	89	0
37	81889	90	0
37	82802	91	0
37	83715	92	0
37	84628	93	0
37	85541	94	0
37	86454	95	0
37	87367	96	0
37	88280	97	0
37	89193	98	0
37	90106	99	0
37	91019	100	0
38	917	2	2
38	1830	3	2
38	2743	4	2
38	3656	5	2
38	4569	6	2
38	5482	7	2
38	6395	8	2
38	7308	9	2
38	8222	10	2
38	9181	11	2
38	10114	12	2
38	11047	13	2
38	11980	14	2
38	12913	15	2
38	13846	16	2
38	14779	17	2
38	15712	18	2
38	16645	19	2
38	17578	20	2
38	18511	21	2
38	19444	22	2
38	20377	23	2
38	21310	24	2
38	22243	25	2
38	23176	26	2
38	24109	27	2
38	25042	28	2
38	25975	29	2
38	26945	30	2
38	27868	31	2
38	28791	32	2
38	29714	33	2
38	30762	34	2
38	31675	35	2
38	32588	36	2
38	33501	37	2
38	34414	38	2
38	35327	39	2
38	36240	40	2
38	37153	41	2
38	38066	42	2
38	38979	43	2
38	39892	44	2
38	40805	45	2
38	41718	46	2
38	42631	47	2
38	43544	48	2
38	44457	49	2
38	45370	50	2
38	46283	51	2
38	47196	52	2
38	48109	53	2
38	49022	54	2
38	49935	55	2
38	50848	56	2
38	51761	57	2
38	52674	58	2
38	53587	59	2
38	54500	60	2
38	55413	61	2
38	56326	62	2
38	57239	63	2
38	58152	64	2
38	59065	65	2
38	59978	66	2
38	60891	67	2
38	61804	68	2
38	62717	69	2
38	63630	70	2
38	64543	71	2
38	65456	72	2
38	66369	73	2
38	67282	74	2
38	68195	75	2
38	69108	76	2
38	70021	77	2
38	70934	78	2
38	71847	79	2
38	72760	80	2
38	73673	81	2
38	74586	82	2
38	75499	83	2
38	76412	84	2
38	77325	85	2
38	78238	86	2
38	79151	87	2
38	80064	88	2
38	80977	89	2
38	81890	90	2
38	82803	91	2
38	83716	92	2
38	84629	93	2
38	85542	94	2
38	86455	95	2
38	87368	96	2
38	88281	97	2
38	89194	98	2
38	90107	99	2
38	91020	100	2
39	917	2	0.008241319534
39	1830	3	0.009368199485
39	2743	4	0.009368199512
39	3656	5	0.00936819952
39	4569	6	0.00936819952
39	5482	7	0.00938119952
39	6395	8	0.009368199519
39	7308	9	0.00936819951
39	8222	10	0.009368199507
39	9181	11	0.009413199307
39	10114	12	0.009381197223
39	11047	13	0.009368192264
39	11980	14	0.009368185092
39	12913	15	0.009368176575
39	13846	16	0.009368167412
39	14779	17	0.009368158101
39	15712	18	0.009368148987
39	16645	19	0.009368140303
39	17578	20	0.009381132178
39	18511	21	0.009368124682
39	19444	22	0.009368117849
39	20377	23	0.009368111671
39	21310	24	0.009368106131
39	22243	25	0.009368101181
39	23176	26	0.009381096788
39	24109	27	0.009368092903
39	25042	28	0.009368089473
39	25975	29	0.009368086458
39	26945	30	0.009485083814
39	27868	31	0.0093680815
39	28791	32	0.009368079473
39	29714	33	0.009368077704
39	30762	34	0.009771004255
39	31675	35	0.009367990322
39	32588	36	0.009367870781
39	33501	37	0.009380698382
39	34414	38	0.009367511626
39	35327	39	0.009367314088
39	36240	40	0.009367102439
39	37153	41	0.009379871679
39	38066	42	0.009366625861
39	38979	43	0.009366371297
39	39892	44	0.009366113025
39	40805	45	0.009378851505
39	41718	46	0.009365588491
39	42631	47	0.009365324525
39	43544	48	0.009378059918
39	44457	49	0.009364794862
39	45370	50	0.00937752948
39	46283	51	0.009364263855
39	47196	52	0.009363998036
39	48109	53	0.009376732079
39	49022	54	0.009363466
39	49935	55	0.009376199824
39	50848	56	0.009375933571
39	51761	57	0.00936266725
39	52674	58	0.009375400871
39	53587	59	0.009362134452
39	54500	60	0.009374869708
39	55413	61	0.00937460905
39	56326	62	0.0093613422
39	57239	63	0.009374075349
39	58152	64	0.009373808497
39	59065	65	0.009360541647
39	59978	66	0.009373274794
39	60891	67	0.009373007945
39	61804	68	0.009372741091
39	62717	69	0.009359474241
39	63630	70	0.009372207389
39	64543	71	0.009371940539
39	65456	72	0.009371673687
39	66369	73	0.009371406835
39	67282	74	0.009371139986
39	68195	75	0.009370873133
39	69108	76	0.009370606281
39	70021	77	0.00937033943
39	70934	78	0.00937007258
39	71847	79	0.009369805729
39	72760	80	0.009369538875
39	73673	81	0.009369272026
39	74586	82	0.009369005174
39	75499	83	0.009368738324
39	76412	84	0.009368471471
39	77325	85	0.00936820462
39	78238	86	0.009367937769
39	79151	87	0.009380670918
39	80064	88	0.009367404067
39	80977	89	0.009367137215
39	81890	90	0.009366870365
39	82803	91	0.009366603513
39	83716	92	0.009379336661
39	84629	93	0.00936606981
39	85542	94	0.009365802959
39	86455	95	0.009378536109
39	87368	96	0.009365269255
39	88281	97	0.009365002406
39	89194	98	0.009377735554
39	90107	99	0.009364468703
39	91020	100	0.00937720185
40	917	2	0
40	1830	3	0
40	2743	4	0
40	3656	5	0
40	4569	6	0
40	5482	7	0
40	6395	8	0
40	7308	9	0
40	8222	10	0
40	9181	11	0
40	10114	12	0
40	11047	13	0
40	11980	14	0
40	12913	15	0
40	13846	16	0
40	14779	17	0
40	15712	18	0
40	16645	19	0
40	17578	20	0
40	18511	21	0
40	19444	22	0
40	20377	23	0
40	21310	24	0
40	22243	25	0
40	23176	26	0
40	24109	27	0
40	25042	28	0
40	25975	29	0
40	26945	30	0
40	27868	31	0
40	28791	32	0
40	29714	33	0
40	30762	34	0
40	31675	35	0
40	32588	36	0
40	33501	37	0
40	34414	38	0
40	35327	39	0
40	36240	40	0
40	37153	41	0
40	38066	42	0
40	38979	43	0
40	39892	44	0
40	40805	45	0
40	41718	46	0
40	42631	47	0
40	43544	48	0
40	44457	49	0
40	45370	50	0
40	46283	51	0
40	47196	52	0
40	48109	53	0
40	49022	54	0
40	49935	55	0
40	50848	56	0
40	51761	57	0
40	52674	58	0
40	53587	59	0
40	54500	60	0
40	55413	61	0
40	56326	62	0
40	57239	63	0
40	58152	64	0
40	59065	65	0
40	59978	66	0
40	60891	67	0
40	61804	68	0
40	62717	69	0
40	63630	70	0
40	64543	71	0
40	65456	72	0
40	66369	73	0
40	67282	74	0
40	68195	75	0
40	69108	76	0
40	70021	77	0
40	70934	78	0
40	71847	79	0
40	72760	80	0
40	73673	81	0
40	74586	82	0
40	75499	83	0
40	76412	84	0
40	77325	85	0
40	78238	86	0
40	79151	87	0
40	80064	88	0
40	80977	89	0
40	81890	90	0
40	82803	91	0
40	83716	92	0
40	84629	93	0
40	85542	94	0
40	86455	95	0
40	87368	96	0
40	88281	97	0
40	89194	98	0
40	90107	99	0
40	91020	100	0

