version 3
run BreakRanksNoGui-831-20240710-17:52:10-276864
attr configname BreakRanksNoGui
attr datetime 20240710-17:52:10
attr datetimef 20240710-175210
attr experiment BreakRanksNoGui
attr inifile omnetpp.ini
attr iterationvars "$nCars=6, $platoonSize=6, $nLanes=1, $ploegH=0.5, $controller=1, $headway=0.1, $leaderHeadway=1.2, $leaderSpeed=130, $breakRanksSafetyDistance=10, $minSpeed=120, $maxSpeed=140, $beaconInterval=0.1, $priority=4, $packetSize=200, $sController=\"CACC\", $0=2, $1=0"
attr iterationvarsd nCars=6/platoonSize=6/nLanes=1/ploegH=0.5/controller=1/headway=0.1/leaderHeadway=1.2/leaderSpeed=130/breakRanksSafetyDistance=10/minSpeed=120/maxSpeed=140/beaconInterval=0.1/priority=4/packetSize=200/sController=CACC/2/0
attr iterationvarsf nCars=6,platoonSize=6,nLanes=1,ploegH=0.5,controller=1,headway=0.1,leaderHeadway=1.2,leaderSpeed=130,breakRanksSafetyDistance=10,minSpeed=120,maxSpeed=140,beaconInterval=0.1,priority=4,packetSize=200,sController=CACC,2,0-
attr measurement "$nCars=6, $platoonSize=6, $nLanes=1, $ploegH=0.5, $controller=1, $headway=0.1, $leaderHeadway=1.2, $leaderSpeed=130, $breakRanksSafetyDistance=10, $minSpeed=120, $maxSpeed=140, $beaconInterval=0.1, $priority=4, $packetSize=200, $sController=\"CACC\", $0=2, $1=0"
attr network Highway
attr processid 276864
attr repetition 1
attr replication #1
attr resultdir results
attr runnumber 831
attr seedset 1
itervar beaconInterval 0.1
itervar breakRanksSafetyDistance 10
itervar controller 1
itervar headway 0.1
itervar leaderHeadway 1.2
itervar leaderSpeed 130
itervar maxSpeed 140
itervar minSpeed 120
itervar nCars 6
itervar nLanes 1
itervar packetSize 200
itervar platoonSize 6
itervar ploegH 0.5
itervar priority 4
itervar sController "\"CACC\""
config image-path ../../../veins/images
config repeat 10
config extends BreakRanks
config *.manager.command "\"sumo\""
config *.manager.ignoreGuiCommands true
config output-vector-file "results/BreakRanks_1_0.1_130_10_6 /result_1.vec"
config output-scalar-file "results/BreakRanks_1_0.1_130_10_6 /result_1.sca"
config extends Platooning
config *.node[*].scenario_type "\"BreakRanksScenario\""
config *.manager.command "\"sumo-gui\""
config *.node[*].scenario_type "\"SimpleScenario\""
config cmdenv-express-mode true
config cmdenv-autoflush true
config cmdenv-status-frequency 15s
config num-rngs 6
config network Highway
config debug-on-errors true
config print-undisposed true
config *.playgroundSizeX 65000m
config *.playgroundSizeY 25000m
config *.playgroundSizeZ 50m
config sim-time-limit "100 s"
config *.annotations.draw false
config *.obstacles.debug false
config *.world.useTorus false
config *.world.use2D false
config *.manager.updateInterval 0.01s
config *.manager.host "\"localhost\""
config *.manager.moduleType "\"org.car2x.plexe.PlatoonCar\""
config *.manager.moduleName "\"node\""
config *.manager.moduleDisplayString "\"\""
config *.manager.autoShutdown true
config *.manager.margin 25
config *.connectionManager.sendDirect true
config *.connectionManager.maxInterfDist 2600m
config *.connectionManager.drawMaxIntfDist false
config *.**.nic.mac1609_4.useServiceChannel false
config *.**.nic.mac1609_4.txPower 100mW
config *.**.nic.mac1609_4.bitrate 6Mbps
config *.**.nic.mac1609_4.useAcks true
config *.**.nic.mac1609_4.ackErrorRate 0.0
config *.**.nic.mac1609_4.frameErrorRate 0.0
config *.**.nic.phy80211p.minPowerLevel -94dBm
config *.**.nic.phy80211p.maxTXPower 100mW
config *.**.nic.phy80211p.useNoiseFloor true
config *.**.nic.phy80211p.noiseFloor -95dBm
config *.**.nic.phy80211p.decider "xmldoc(\"config.xml\")"
config *.**.nic.phy80211p.analogueModels "xmldoc(\"config.xml\")"
config *.**.nic.phy80211p.usePropagationDelay true
config *.node[*].mobility.x 0
config *.node[*].mobility.y 0
config *.node[*].mobility.z 1.895
config seed-set 1
config **.seed 1
config *.node[*].prot.rng-0 2
config *.node[*].appl.rng-0 3
config *.node[*].scenario.rng-0 4
config **.traffic.rng-0 5
config *.manager.configFile "\"./sumocfg/freeway.sumo.cfg\""
config *.manager.launchConfig "xmldoc(\"./sumocfg/freeway.launchd.xml\")"
config **.numberOfCars 6
config **.numberOfCarsPerPlatoon 6
config **.numberOfLanes 1
config *.node[*].helper_type "\"PositionHelper\""
config *.node[*].scenario.caccC1 0.5
config *.node[*].scenario.caccXi 1
config *.node[*].scenario.caccOmegaN "0.2 Hz"
config *.node[*].scenario.caccSpacing "2 m"
config *.node[*].scenario.engineTau "0.5 s"
config *.node[*].scenario.ploegH 0.5s
config *.node[*].scenario.ploegKp 0.2
config *.node[*].scenario.ploegKd 0.7
config *.node[*].scenario.useRealisticEngine false
config *.node[*].scenario.useControllerAcceleration true
config *.node[*].scenario.nLanes 1
config **.numericController 1
config **.headway 0.1s
config *.node[*].scenario.accHeadway 0.1s
config *.node[*].scenario.leaderHeadway 1.2s
config *.node[*].scenario.leaderSpeed 130kmph
config *.node[*].appl_type "\"SimplePlatooningApp\""
config *.node[*].appl.*.scalar-recording true
config *.node[*].appl.*.vector-recording true
config *.node[0].appl.breakRanksSafetyDistance 10m
config *.node[*].appl.minSpeed 120kmph
config *.node[*].appl.maxSpeed 140kmph
config *.node[*].protocol_type "\"SimplePlatooningBeaconing\""
config *.node[*].prot.*.scalar-recording true
config *.node[*].prot.*.vector-recording true
config *.node[*].prot.beaconingInterval 0.1s
config *.node[*].prot.priority 4
config *.node[*].prot.packetSize 200
config **.traffic_type "\"PlatoonsTrafficManager\""
config **.traffic.platoonInsertTime "1 s"
config **.traffic.platoonInsertSpeed 130kmph
config **.traffic.nCars 6
config **.traffic.platoonSize 6
config **.traffic.nLanes 1
config **.traffic.platooningVType "\"vtypeauto\""
config **.traffic.controller "\"CACC\""
config **.traffic.platoonInsertDistance 2m
config **.traffic.platoonInsertHeadway 0s
config **.traffic.platoonLeaderHeadway 1.2s
config **.scalar-recording false
config **.vector-recording false

vector 0 Highway.node[0].appl distance ETV
vector 1 Highway.node[0].appl relativeSpeed ETV
vector 2 Highway.node[0].appl nodeId ETV
vector 3 Highway.node[0].appl acceleration ETV
vector 4 Highway.node[0].appl controllerAcceleration ETV
vector 5 Highway.node[0].appl speed ETV
vector 6 Highway.node[0].appl posx ETV
vector 7 Highway.node[0].appl posy ETV
vector 8 Highway.node[1].appl distance ETV
vector 9 Highway.node[1].appl relativeSpeed ETV
vector 10 Highway.node[1].appl nodeId ETV
vector 11 Highway.node[1].appl acceleration ETV
vector 12 Highway.node[1].appl controllerAcceleration ETV
vector 13 Highway.node[1].appl speed ETV
vector 14 Highway.node[1].appl posx ETV
vector 15 Highway.node[1].appl posy ETV
vector 16 Highway.node[2].appl distance ETV
vector 17 Highway.node[2].appl relativeSpeed ETV
vector 18 Highway.node[2].appl nodeId ETV
vector 19 Highway.node[2].appl acceleration ETV
vector 20 Highway.node[2].appl controllerAcceleration ETV
vector 21 Highway.node[2].appl speed ETV
vector 22 Highway.node[2].appl posx ETV
vector 23 Highway.node[2].appl posy ETV
vector 24 Highway.node[3].appl distance ETV
vector 25 Highway.node[3].appl relativeSpeed ETV
vector 26 Highway.node[3].appl nodeId ETV
vector 27 Highway.node[3].appl acceleration ETV
vector 28 Highway.node[3].appl controllerAcceleration ETV
vector 29 Highway.node[3].appl speed ETV
vector 30 Highway.node[3].appl posx ETV
vector 31 Highway.node[3].appl posy ETV
vector 32 Highway.node[4].appl distance ETV
vector 33 Highway.node[4].appl relativeSpeed ETV
vector 34 Highway.node[4].appl nodeId ETV
vector 35 Highway.node[4].appl acceleration ETV
vector 36 Highway.node[4].appl controllerAcceleration ETV
vector 37 Highway.node[4].appl speed ETV
vector 38 Highway.node[4].appl posx ETV
vector 39 Highway.node[4].appl posy ETV
vector 40 Highway.node[5].appl distance ETV
vector 41 Highway.node[5].appl relativeSpeed ETV
vector 42 Highway.node[5].appl nodeId ETV
vector 43 Highway.node[5].appl acceleration ETV
vector 44 Highway.node[5].appl controllerAcceleration ETV
vector 45 Highway.node[5].appl speed ETV
vector 46 Highway.node[5].appl posx ETV
vector 47 Highway.node[5].appl posy ETV
vector 48 Highway.node[2].prot frontDelay ETV
vector 49 Highway.node[2].prot frontDelayId ETV
vector 50 Highway.node[4].prot frontDelay ETV
vector 51 Highway.node[4].prot frontDelayId ETV
vector 52 Highway.node[5].prot frontDelay ETV
vector 53 Highway.node[5].prot frontDelayId ETV
vector 54 Highway.node[1].prot leaderDelay ETV
vector 55 Highway.node[1].prot leaderDelayId ETV
vector 56 Highway.node[1].prot frontDelay ETV
vector 57 Highway.node[1].prot frontDelayId ETV
vector 58 Highway.node[2].prot leaderDelay ETV
vector 59 Highway.node[2].prot leaderDelayId ETV
vector 60 Highway.node[3].prot leaderDelay ETV
vector 61 Highway.node[3].prot leaderDelayId ETV
vector 62 Highway.node[4].prot leaderDelay ETV
vector 63 Highway.node[4].prot leaderDelayId ETV
vector 64 Highway.node[5].prot leaderDelay ETV
vector 65 Highway.node[5].prot leaderDelayId ETV
vector 66 Highway.node[3].prot frontDelay ETV
vector 67 Highway.node[3].prot frontDelayId ETV
vector 68 Highway.node[0].prot nodeId ETV
vector 69 Highway.node[0].prot busyTime ETV
vector 70 Highway.node[0].prot collisions ETV
vector 71 Highway.node[1].prot nodeId ETV
vector 72 Highway.node[1].prot busyTime ETV
vector 73 Highway.node[1].prot collisions ETV
vector 74 Highway.node[2].prot nodeId ETV
vector 75 Highway.node[2].prot busyTime ETV
vector 76 Highway.node[2].prot collisions ETV
vector 77 Highway.node[3].prot nodeId ETV
vector 78 Highway.node[3].prot busyTime ETV
vector 79 Highway.node[3].prot collisions ETV
vector 80 Highway.node[4].prot nodeId ETV
vector 81 Highway.node[4].prot busyTime ETV
vector 82 Highway.node[4].prot collisions ETV
vector 83 Highway.node[5].prot nodeId ETV
vector 84 Highway.node[5].prot busyTime ETV
vector 85 Highway.node[5].prot collisions ETV
0	113	1.11	-1
0	429	1.21	-1
0	745	1.31	-1
0	1061	1.41	-1
0	1377	1.51	-1
0	1693	1.61	-1
0	2009	1.71	-1
0	2325	1.81	-1
0	2641	1.91	-1
0	2963	2.01	-1
0	3279	2.11	-1
0	3595	2.21	-1
0	3911	2.31	-1
0	4227	2.41	-1
0	4543	2.51	-1
0	4859	2.61	-1
0	5175	2.71	-1
0	5491	2.81	-1
0	5807	2.91	-1
0	6129	3.01	-1
0	6445	3.11	-1
0	6761	3.21	-1
0	7077	3.31	-1
0	7393	3.41	-1
0	7709	3.51	-1
0	8025	3.61	-1
0	8341	3.71	-1
0	8657	3.81	-1
0	8973	3.91	-1
0	9295	4.01	-1
0	9611	4.11	-1
0	9927	4.21	-1
0	10243	4.31	-1
0	10559	4.41	-1
0	10875	4.51	-1
0	11191	4.61	-1
0	11507	4.71	-1
0	11823	4.81	-1
0	12139	4.91	-1
0	12461	5.01	-1
0	12777	5.11	-1
0	13093	5.21	-1
0	13409	5.31	-1
0	13725	5.41	-1
0	14041	5.51	-1
0	14357	5.61	-1
0	14673	5.71	-1
0	14989	5.81	-1
0	15305	5.91	-1
0	15627	6.01	-1
0	15943	6.11	-1
0	16259	6.21	-1
0	16575	6.31	-1
0	16891	6.41	-1
0	17207	6.51	-1
0	17523	6.61	-1
0	17839	6.71	-1
0	18155	6.81	-1
0	18471	6.91	-1
0	18793	7.01	-1
0	19109	7.11	-1
0	19425	7.21	-1
0	19741	7.31	-1
0	20057	7.41	-1
0	20373	7.51	-1
0	20689	7.61	-1
0	21005	7.71	-1
0	21321	7.81	-1
0	21637	7.91	-1
0	21959	8.01	-1
0	22275	8.11	-1
0	22591	8.21	-1
0	22907	8.31	-1
0	23223	8.41	-1
0	23539	8.51	-1
0	23855	8.61	-1
0	24171	8.71	-1
0	24487	8.81	-1
0	24803	8.91	-1
0	25125	9.01	-1
0	25441	9.11	-1
0	25757	9.21	-1
0	26073	9.31	-1
0	26389	9.41	-1
0	26705	9.51	-1
0	27021	9.61	-1
0	27337	9.71	-1
0	27653	9.81	-1
0	27969	9.91	-1
0	28347	10.01	-1
0	28668	10.11	-1
0	28989	10.21	-1
0	29310	10.31	-1
0	29631	10.41	-1
0	29952	10.51	-1
0	30273	10.61	-1
0	30594	10.71	-1
0	30915	10.81	-1
0	31236	10.91	-1
0	31563	11.01	-1
0	31884	11.11	-1
0	32205	11.21	-1
0	32526	11.31	-1
0	32847	11.41	-1
0	33168	11.51	-1
0	33489	11.61	-1
0	33810	11.71	-1
0	34131	11.81	-1
0	34452	11.91	-1
0	34779	12.01	-1
0	35100	12.11	-1
0	35421	12.21	-1
0	35742	12.31	-1
0	36063	12.41	-1
0	36384	12.51	-1
0	36705	12.61	-1
0	37026	12.71	-1
0	37347	12.81	-1
0	37668	12.91	-1
0	37995	13.01	-1
0	38316	13.11	-1
0	38637	13.21	-1
0	38958	13.31	-1
0	39279	13.41	-1
0	39600	13.51	-1
0	39921	13.61	-1
0	40242	13.71	-1
0	40563	13.81	-1
0	40884	13.91	-1
0	41211	14.01	-1
0	41532	14.11	-1
0	41853	14.21	-1
0	42174	14.31	-1
0	42495	14.41	-1
0	42816	14.51	-1
0	43137	14.61	-1
0	43458	14.71	-1
0	43779	14.81	-1
0	44100	14.91	-1
0	44427	15.01	-1
0	44748	15.11	-1
0	45069	15.21	-1
0	45390	15.31	-1
0	45711	15.41	-1
0	46032	15.51	-1
0	46353	15.61	-1
0	46674	15.71	-1
0	46995	15.81	-1
0	47316	15.91	-1
0	47643	16.01	-1
0	47964	16.11	-1
0	48285	16.21	-1
0	48606	16.31	-1
0	48927	16.41	-1
0	49248	16.51	-1
0	49569	16.61	-1
0	49890	16.71	-1
0	50211	16.81	-1
0	50532	16.91	-1
0	50859	17.01	-1
0	51180	17.11	-1
0	51501	17.21	-1
0	51822	17.31	-1
0	52143	17.41	-1
0	52464	17.51	-1
0	52785	17.61	-1
0	53106	17.71	-1
0	53427	17.81	-1
0	53748	17.91	-1
0	54075	18.01	-1
0	54396	18.11	-1
0	54717	18.21	-1
0	55038	18.31	-1
0	55359	18.41	-1
0	55680	18.51	-1
0	56001	18.61	-1
0	56322	18.71	-1
0	56643	18.81	-1
0	56964	18.91	-1
0	57291	19.01	-1
0	57612	19.11	-1
0	57933	19.21	-1
0	58254	19.31	-1
0	58575	19.41	-1
0	58896	19.51	-1
0	59217	19.61	-1
0	59538	19.71	-1
0	59859	19.81	-1
0	60180	19.91	-1
0	60507	20.01	-1
0	60828	20.11	-1
0	61149	20.21	-1
0	61470	20.31	-1
0	61791	20.41	-1
0	62112	20.51	-1
0	62433	20.61	-1
0	62754	20.71	-1
0	63075	20.81	-1
0	63396	20.91	-1
0	63723	21.01	-1
0	64044	21.11	-1
0	64365	21.21	-1
0	64686	21.31	-1
0	65007	21.41	-1
0	65328	21.51	-1
0	65649	21.61	-1
0	65970	21.71	-1
0	66291	21.81	-1
0	66612	21.91	-1
0	66939	22.01	-1
0	67260	22.11	-1
0	67581	22.21	-1
0	67902	22.31	-1
0	68223	22.41	-1
0	68544	22.51	-1
0	68865	22.61	-1
0	69186	22.71	-1
0	69507	22.81	-1
0	69828	22.91	-1
0	70155	23.01	-1
0	70476	23.11	-1
0	70797	23.21	-1
0	71118	23.31	-1
0	71439	23.41	-1
0	71760	23.51	-1
0	72081	23.61	-1
0	72402	23.71	-1
0	72723	23.81	-1
0	73044	23.91	-1
0	73371	24.01	-1
0	73692	24.11	-1
0	74013	24.21	-1
0	74334	24.31	-1
0	74655	24.41	-1
0	74976	24.51	-1
0	75297	24.61	-1
0	75618	24.71	-1
0	75939	24.81	-1
0	76260	24.91	-1
0	76587	25.01	-1
0	76908	25.11	-1
0	77229	25.21	-1
0	77550	25.31	-1
0	77871	25.41	-1
0	78192	25.51	-1
0	78513	25.61	-1
0	78834	25.71	-1
0	79155	25.81	-1
0	79476	25.91	-1
0	79803	26.01	-1
0	80124	26.11	-1
0	80445	26.21	-1
0	80766	26.31	-1
0	81087	26.41	-1
0	81408	26.51	-1
0	81729	26.61	-1
0	82050	26.71	-1
0	82371	26.81	-1
0	82692	26.91	-1
0	83019	27.01	-1
0	83340	27.11	-1
0	83661	27.21	-1
0	83982	27.31	-1
0	84303	27.41	-1
0	84624	27.51	-1
0	84945	27.61	-1
0	85266	27.71	-1
0	85587	27.81	-1
0	85908	27.91	-1
0	86235	28.01	-1
0	86556	28.11	-1
0	86877	28.21	-1
0	87198	28.31	-1
0	87519	28.41	-1
0	87840	28.51	-1
0	88161	28.61	-1
0	88482	28.71	-1
0	88803	28.81	-1
0	89124	28.91	-1
0	89451	29.01	-1
0	89772	29.11	-1
0	90093	29.21	-1
0	90414	29.31	-1
0	90735	29.41	-1
0	91056	29.51	-1
0	91377	29.61	-1
0	91698	29.71	-1
0	92019	29.81	-1
0	92340	29.91	-1
0	92667	30.01	-1
0	92988	30.11	-1
0	93309	30.21	-1
0	93630	30.31	-1
0	93951	30.41	-1
0	94272	30.51	-1
0	94593	30.61	-1
0	94914	30.71	-1
0	95235	30.81	-1
0	95556	30.91	-1
0	95883	31.01	-1
0	96204	31.11	-1
0	96525	31.21	-1
0	96846	31.31	-1
0	97167	31.41	-1
0	97488	31.51	-1
0	97809	31.61	-1
0	98130	31.71	-1
0	98451	31.81	-1
0	98772	31.91	-1
0	99099	32.01	-1
0	99420	32.11	-1
0	99741	32.21	-1
0	100062	32.31	-1
0	100383	32.41	-1
0	100704	32.51	-1
0	101025	32.61	-1
0	101346	32.71	-1
0	101667	32.81	-1
0	101988	32.91	-1
0	102315	33.01	-1
0	102636	33.11	-1
0	102957	33.21	-1
0	103278	33.31	-1
0	103599	33.41	-1
0	103920	33.51	-1
0	104241	33.61	-1
0	104562	33.71	-1
0	104883	33.81	-1
0	105204	33.91	-1
0	105531	34.01	-1
0	105852	34.11	-1
0	106173	34.21	-1
0	106494	34.31	-1
0	106815	34.41	-1
0	107136	34.51	-1
0	107457	34.61	-1
0	107778	34.71	-1
0	108099	34.81	-1
0	108420	34.91	-1
0	108747	35.01	-1
0	109068	35.11	-1
0	109389	35.21	-1
0	109710	35.31	-1
0	110031	35.41	-1
0	110352	35.51	-1
0	110673	35.61	-1
0	110994	35.71	-1
0	111315	35.81	-1
0	111636	35.91	-1
0	111963	36.01	-1
0	112284	36.11	-1
0	112605	36.21	-1
0	112926	36.31	-1
0	113247	36.41	-1
0	113568	36.51	-1
0	113889	36.61	-1
0	114210	36.71	-1
0	114531	36.81	-1
0	114852	36.91	-1
0	115179	37.01	-1
0	115500	37.11	-1
0	115821	37.21	-1
0	116142	37.31	-1
0	116463	37.41	-1
0	116784	37.51	-1
0	117105	37.61	-1
0	117426	37.71	-1
0	117747	37.81	-1
0	118068	37.91	-1
0	118395	38.01	-1
0	118716	38.11	-1
0	119037	38.21	-1
0	119358	38.31	-1
0	119679	38.41	-1
0	120000	38.51	-1
0	120321	38.61	-1
0	120642	38.71	-1
0	120963	38.81	-1
0	121284	38.91	-1
0	121611	39.01	-1
0	121932	39.11	-1
0	122253	39.21	-1
0	122574	39.31	-1
0	122895	39.41	-1
0	123216	39.51	-1
0	123537	39.61	-1
0	123858	39.71	-1
0	124179	39.81	-1
0	124500	39.91	-1
0	124827	40.01	-1
0	125148	40.11	-1
0	125469	40.21	-1
0	125790	40.31	-1
0	126111	40.41	-1
0	126432	40.51	-1
0	126753	40.61	-1
0	127074	40.71	-1
0	127395	40.81	-1
0	127716	40.91	-1
0	128043	41.01	-1
0	128364	41.11	-1
0	128685	41.21	-1
0	129006	41.31	-1
0	129327	41.41	-1
0	129648	41.51	-1
0	129969	41.61	-1
0	130290	41.71	-1
0	130611	41.81	-1
0	130932	41.91	-1
0	131259	42.01	-1
0	131580	42.11	-1
0	131901	42.21	-1
0	132222	42.31	-1
0	132543	42.41	-1
0	132864	42.51	-1
0	133185	42.61	-1
0	133579	42.71	-1
0	133899	42.81	-1
0	134219	42.91	-1
0	134545	43.01	-1
0	134865	43.11	-1
0	135185	43.21	-1
0	135505	43.31	-1
0	135825	43.41	-1
0	136145	43.51	-1
0	136465	43.61	-1
0	136785	43.71	-1
0	137105	43.81	-1
0	137425	43.91	-1
0	137751	44.01	-1
0	138071	44.11	-1
0	138391	44.21	-1
0	138711	44.31	-1
0	139031	44.41	-1
0	139351	44.51	-1
0	139671	44.61	-1
0	139991	44.71	-1
0	140311	44.81	-1
0	140631	44.91	-1
0	140957	45.01	-1
0	141277	45.11	-1
0	141597	45.21	-1
0	141917	45.31	-1
0	142237	45.41	-1
0	142557	45.51	-1
0	142877	45.61	-1
0	143197	45.71	-1
0	143517	45.81	-1
0	143837	45.91	-1
0	144163	46.01	-1
0	144483	46.11	-1
0	144803	46.21	-1
0	145123	46.31	-1
0	145443	46.41	-1
0	145763	46.51	-1
0	146083	46.61	-1
0	146403	46.71	-1
0	146723	46.81	-1
0	147043	46.91	-1
0	147369	47.01	-1
0	147689	47.11	-1
0	148009	47.21	-1
0	148329	47.31	-1
0	148649	47.41	-1
0	148969	47.51	-1
0	149289	47.61	-1
0	149609	47.71	-1
0	149929	47.81	-1
0	150249	47.91	-1
0	150575	48.01	-1
0	150895	48.11	-1
0	151215	48.21	-1
0	151535	48.31	-1
0	151855	48.41	-1
0	152248	48.51	-1
0	152567	48.61	-1
0	152886	48.71	-1
0	153205	48.81	-1
0	153524	48.91	-1
0	153849	49.01	-1
0	154168	49.11	-1
0	154487	49.21	-1
0	154806	49.31	-1
0	155125	49.41	-1
0	155444	49.51	-1
0	155763	49.61	-1
0	156082	49.71	-1
0	156401	49.81	-1
0	156720	49.91	-1
0	157045	50.01	-1
0	157364	50.11	-1
0	157683	50.21	-1
0	158002	50.31	-1
0	158321	50.41	-1
0	158640	50.51	-1
0	158959	50.61	-1
0	159278	50.71	-1
0	159597	50.81	-1
0	159916	50.91	-1
0	160241	51.01	-1
0	160560	51.11	-1
0	160879	51.21	-1
0	161198	51.31	-1
0	161517	51.41	-1
0	161836	51.51	-1
0	162155	51.61	-1
0	162474	51.71	-1
0	162793	51.81	-1
0	163112	51.91	-1
0	163437	52.01	-1
0	163756	52.11	-1
0	164075	52.21	-1
0	164394	52.31	-1
0	164713	52.41	-1
0	165032	52.51	-1
0	165351	52.61	-1
0	165670	52.71	-1
0	165989	52.81	-1
0	166308	52.91	-1
0	166633	53.01	-1
0	166952	53.11	-1
0	167271	53.21	-1
0	167590	53.31	-1
0	167909	53.41	-1
0	168228	53.51	-1
0	168547	53.61	-1
0	168866	53.71	-1
0	169258	53.81	-1
0	169576	53.91	-1
0	169900	54.01	-1
0	170218	54.11	-1
0	170536	54.21	-1
0	170854	54.31	-1
0	171172	54.41	-1
0	171490	54.51	-1
0	171808	54.61	-1
0	172126	54.71	-1
0	172444	54.81	-1
0	172762	54.91	-1
0	173086	55.01	-1
0	173404	55.11	-1
0	173722	55.21	-1
0	174040	55.31	-1
0	174358	55.41	-1
0	174676	55.51	-1
0	174994	55.61	-1
0	175312	55.71	-1
0	175630	55.81	-1
0	175948	55.91	-1
0	176272	56.01	-1
0	176590	56.11	-1
0	176908	56.21	-1
0	177226	56.31	-1
0	177544	56.41	-1
0	177862	56.51	-1
0	178180	56.61	-1
0	178498	56.71	-1
0	178816	56.81	-1
0	179134	56.91	-1
0	179458	57.01	-1
0	179776	57.11	-1
0	180094	57.21	-1
0	180412	57.31	-1
0	180730	57.41	-1
0	181048	57.51	-1
0	181366	57.61	-1
0	181684	57.71	-1
0	182002	57.81	-1
0	182320	57.91	-1
0	182644	58.01	-1
0	182962	58.11	-1
0	183280	58.21	-1
0	183598	58.31	-1
0	183916	58.41	-1
0	184234	58.51	-1
0	184625	58.61	-1
0	184942	58.71	-1
0	185259	58.81	-1
0	185576	58.91	-1
0	185899	59.01	-1
0	186216	59.11	-1
0	186533	59.21	-1
0	186850	59.31	-1
0	187167	59.41	-1
0	187484	59.51	-1
0	187801	59.61	-1
0	188118	59.71	-1
0	188435	59.81	-1
0	188752	59.91	-1
0	189075	60.01	-1
0	189392	60.11	-1
0	189709	60.21	-1
0	190026	60.31	-1
0	190343	60.41	-1
0	190660	60.51	-1
0	190977	60.61	-1
0	191294	60.71	-1
0	191611	60.81	-1
0	191928	60.91	-1
0	192251	61.01	-1
0	192568	61.11	-1
0	192885	61.21	-1
0	193202	61.31	-1
0	193519	61.41	-1
0	193836	61.51	-1
0	194153	61.61	-1
0	194470	61.71	-1
0	194787	61.81	-1
0	195104	61.91	-1
0	195427	62.01	-1
0	195744	62.11	-1
0	196061	62.21	-1
0	196378	62.31	-1
0	196695	62.41	-1
0	197012	62.51	-1
0	197329	62.61	-1
0	197646	62.71	-1
0	197963	62.81	-1
0	198280	62.91	-1
0	198603	63.01	-1
0	198920	63.11	-1
0	199237	63.21	-1
0	199992	63.31	-1
0	200308	63.41	-1
0	200624	63.51	-1
0	200940	63.61	-1
0	201256	63.71	-1
0	201572	63.81	-1
0	201888	63.91	-1
0	202210	64.01	-1
0	202526	64.11	-1
0	202842	64.21	-1
0	203158	64.31	-1
0	203474	64.41	-1
0	203790	64.51	-1
0	204106	64.61	-1
0	204422	64.71	-1
0	204738	64.81	-1
0	205054	64.91	-1
0	205376	65.01	-1
0	205692	65.11	-1
0	206008	65.21	-1
0	206324	65.31	-1
0	206640	65.41	-1
0	206956	65.51	-1
0	207272	65.61	-1
0	207588	65.71	-1
0	207904	65.81	-1
0	208220	65.91	-1
0	208542	66.01	-1
0	208858	66.11	-1
0	209174	66.21	-1
0	209490	66.31	-1
0	209806	66.41	-1
0	210122	66.51	-1
0	210438	66.61	-1
0	210754	66.71	-1
0	211070	66.81	-1
0	211386	66.91	-1
0	211708	67.01	-1
0	212024	67.11	-1
0	212340	67.21	-1
0	212656	67.31	-1
0	212972	67.41	-1
0	213288	67.51	-1
0	213604	67.61	-1
0	213920	67.71	-1
0	214236	67.81	-1
0	214552	67.91	-1
0	214874	68.01	-1
0	215190	68.11	-1
0	215506	68.21	-1
0	215822	68.31	-1
0	216138	68.41	-1
0	216454	68.51	-1
0	216770	68.61	-1
0	217086	68.71	-1
0	217402	68.81	-1
0	217718	68.91	-1
0	218040	69.01	-1
0	218356	69.11	-1
0	218672	69.21	-1
0	218988	69.31	-1
0	219304	69.41	-1
0	219620	69.51	-1
0	219936	69.61	-1
0	220252	69.71	-1
0	220568	69.81	-1
0	220884	69.91	-1
0	221206	70.01	-1
0	221522	70.11	-1
0	221838	70.21	-1
0	222154	70.31	-1
0	222470	70.41	-1
0	222786	70.51	-1
0	223102	70.61	-1
0	223418	70.71	-1
0	223734	70.81	-1
0	224050	70.91	-1
0	224372	71.01	-1
0	224688	71.11	-1
0	225004	71.21	-1
0	225320	71.31	-1
0	225636	71.41	-1
0	225952	71.51	-1
0	226268	71.61	-1
0	226584	71.71	-1
0	226900	71.81	-1
0	227216	71.91	-1
0	227538	72.01	-1
0	227854	72.11	-1
0	228170	72.21	-1
0	228486	72.31	-1
0	228802	72.41	-1
0	229118	72.51	-1
0	229434	72.61	-1
0	229750	72.71	-1
0	230066	72.81	-1
0	230382	72.91	-1
0	230704	73.01	-1
0	231020	73.11	-1
0	231336	73.21	-1
0	231652	73.31	-1
0	231968	73.41	-1
0	232284	73.51	-1
0	232600	73.61	-1
0	232916	73.71	-1
0	233232	73.81	-1
0	233548	73.91	-1
0	233870	74.01	-1
0	234186	74.11	-1
0	234502	74.21	-1
0	234818	74.31	-1
0	235134	74.41	-1
0	235450	74.51	-1
0	235766	74.61	-1
0	236082	74.71	-1
0	236398	74.81	-1
0	236714	74.91	-1
0	237036	75.01	-1
0	237352	75.11	-1
0	237668	75.21	-1
0	237984	75.31	-1
0	238300	75.41	-1
0	238616	75.51	-1
0	238932	75.61	-1
0	239248	75.71	-1
0	239564	75.81	-1
0	239880	75.91	-1
0	240202	76.01	-1
0	240518	76.11	-1
0	240834	76.21	-1
0	241150	76.31	-1
0	241466	76.41	-1
0	241782	76.51	-1
0	242098	76.61	-1
0	242414	76.71	-1
0	242730	76.81	-1
0	243046	76.91	-1
0	243368	77.01	-1
0	243684	77.11	-1
0	244000	77.21	-1
0	244316	77.31	-1
0	244632	77.41	-1
0	244948	77.51	-1
0	245264	77.61	-1
0	245580	77.71	-1
0	245896	77.81	-1
0	246212	77.91	-1
0	246534	78.01	-1
0	246850	78.11	-1
0	247166	78.21	-1
0	247482	78.31	-1
0	247798	78.41	-1
0	248114	78.51	-1
0	248430	78.61	-1
0	248746	78.71	-1
0	249062	78.81	-1
0	249378	78.91	-1
0	249700	79.01	-1
0	250016	79.11	-1
0	250332	79.21	-1
0	250648	79.31	-1
0	250964	79.41	-1
0	251280	79.51	-1
0	251596	79.61	-1
0	251912	79.71	-1
0	252228	79.81	-1
0	252544	79.91	-1
0	252866	80.01	-1
0	253182	80.11	-1
0	253498	80.21	-1
0	253814	80.31	-1
0	254130	80.41	-1
0	254446	80.51	-1
0	254762	80.61	-1
0	255078	80.71	-1
0	255394	80.81	-1
0	255710	80.91	-1
0	256032	81.01	-1
0	256348	81.11	-1
0	256664	81.21	-1
0	256980	81.31	-1
0	257296	81.41	-1
0	257612	81.51	-1
0	257928	81.61	-1
0	258244	81.71	-1
0	258560	81.81	-1
0	258876	81.91	-1
0	259198	82.01	-1
0	259514	82.11	-1
0	259830	82.21	-1
0	260146	82.31	-1
0	260462	82.41	-1
0	260778	82.51	-1
0	261094	82.61	-1
0	261410	82.71	-1
0	261726	82.81	-1
0	262042	82.91	-1
0	262364	83.01	-1
0	262680	83.11	-1
0	262996	83.21	-1
0	263312	83.31	-1
0	263628	83.41	-1
0	263944	83.51	-1
0	264260	83.61	-1
0	264576	83.71	-1
0	264892	83.81	-1
0	265208	83.91	-1
0	265530	84.01	-1
0	265846	84.11	-1
0	266162	84.21	-1
0	266478	84.31	-1
0	266794	84.41	-1
0	267110	84.51	-1
0	267426	84.61	-1
0	267742	84.71	-1
0	268058	84.81	-1
0	268374	84.91	-1
0	268696	85.01	-1
0	269012	85.11	-1
0	269328	85.21	-1
0	269644	85.31	-1
0	269960	85.41	-1
0	270276	85.51	-1
0	270592	85.61	-1
0	270908	85.71	-1
0	271224	85.81	-1
0	271540	85.91	-1
0	271862	86.01	-1
0	272178	86.11	-1
0	272494	86.21	-1
0	272810	86.31	-1
0	273126	86.41	-1
0	273442	86.51	-1
0	273758	86.61	-1
0	274074	86.71	-1
0	274390	86.81	-1
0	274706	86.91	-1
0	275028	87.01	-1
0	275344	87.11	-1
0	275660	87.21	-1
0	275976	87.31	-1
0	276292	87.41	-1
0	276608	87.51	-1
0	276924	87.61	-1
0	277240	87.71	-1
0	277556	87.81	-1
0	277872	87.91	-1
0	278194	88.01	-1
0	278510	88.11	-1
0	278826	88.21	-1
0	279142	88.31	-1
0	279458	88.41	-1
0	279774	88.51	-1
0	280090	88.61	-1
0	280406	88.71	-1
0	280722	88.81	-1
0	281038	88.91	-1
0	281360	89.01	-1
0	281676	89.11	-1
0	281992	89.21	-1
0	282308	89.31	-1
0	282624	89.41	-1
0	282940	89.51	-1
0	283256	89.61	-1
0	283572	89.71	-1
0	283888	89.81	-1
0	284204	89.91	-1
0	284526	90.01	-1
0	284842	90.11	-1
0	285158	90.21	-1
0	285474	90.31	-1
0	285790	90.41	-1
0	286106	90.51	-1
0	286422	90.61	-1
0	286738	90.71	-1
0	287054	90.81	-1
0	287370	90.91	-1
0	287692	91.01	-1
0	288008	91.11	-1
0	288324	91.21	-1
0	288640	91.31	-1
0	288956	91.41	-1
0	289272	91.51	-1
0	289588	91.61	-1
0	289904	91.71	-1
0	290220	91.81	-1
0	290536	91.91	-1
0	290858	92.01	-1
0	291174	92.11	-1
0	291490	92.21	-1
0	291806	92.31	-1
0	292122	92.41	-1
0	292438	92.51	-1
0	292754	92.61	-1
0	293070	92.71	-1
0	293386	92.81	-1
0	293702	92.91	-1
0	294024	93.01	-1
0	294340	93.11	-1
0	294656	93.21	-1
0	294972	93.31	-1
0	295288	93.41	-1
0	295604	93.51	-1
0	295920	93.61	-1
0	296236	93.71	-1
0	296552	93.81	-1
0	296868	93.91	-1
0	297190	94.01	-1
0	297506	94.11	-1
0	297822	94.21	-1
0	298138	94.31	-1
0	298454	94.41	-1
0	298770	94.51	-1
0	299086	94.61	-1
0	299402	94.71	-1
0	299718	94.81	-1
0	300034	94.91	-1
0	300356	95.01	-1
0	300672	95.11	-1
0	300988	95.21	-1
0	301304	95.31	-1
0	301620	95.41	-1
0	301936	95.51	-1
0	302252	95.61	-1
0	302568	95.71	-1
0	302884	95.81	-1
0	303200	95.91	-1
0	303522	96.01	-1
0	303838	96.11	-1
0	304154	96.21	-1
0	304470	96.31	-1
0	304786	96.41	-1
0	305102	96.51	-1
0	305418	96.61	-1
0	305734	96.71	-1
0	306050	96.81	-1
0	306366	96.91	-1
0	306688	97.01	-1
0	307004	97.11	-1
0	307320	97.21	-1
0	307636	97.31	-1
0	307952	97.41	-1
0	308268	97.51	-1
0	308584	97.61	-1
0	308900	97.71	-1
0	309216	97.81	-1
0	309532	97.91	-1
0	309854	98.01	-1
0	310170	98.11	-1
0	310486	98.21	-1
0	310802	98.31	-1
0	311118	98.41	-1
0	311434	98.51	-1
0	311750	98.61	-1
0	312066	98.71	-1
0	312382	98.81	-1
0	312698	98.91	-1
0	313020	99.01	-1
0	313336	99.11	-1
0	313652	99.21	-1
0	313968	99.31	-1
0	314284	99.41	-1
0	314600	99.51	-1
0	314916	99.61	-1
0	315232	99.71	-1
0	315548	99.81	-1
0	315864	99.91	-1
1	113	1.11	0
1	429	1.21	0
1	745	1.31	0
1	1061	1.41	0
1	1377	1.51	0
1	1693	1.61	0
1	2009	1.71	0
1	2325	1.81	0
1	2641	1.91	0
1	2963	2.01	0
1	3279	2.11	0
1	3595	2.21	0
1	3911	2.31	0
1	4227	2.41	0
1	4543	2.51	0
1	4859	2.61	0
1	5175	2.71	0
1	5491	2.81	0
1	5807	2.91	0
1	6129	3.01	0
1	6445	3.11	0
1	6761	3.21	0
1	7077	3.31	0
1	7393	3.41	0
1	7709	3.51	0
1	8025	3.61	0
1	8341	3.71	0
1	8657	3.81	0
1	8973	3.91	0
1	9295	4.01	0
1	9611	4.11	0
1	9927	4.21	0
1	10243	4.31	0
1	10559	4.41	0
1	10875	4.51	0
1	11191	4.61	0
1	11507	4.71	0
1	11823	4.81	0
1	12139	4.91	0
1	12461	5.01	0
1	12777	5.11	0
1	13093	5.21	0
1	13409	5.31	0
1	13725	5.41	0
1	14041	5.51	0
1	14357	5.61	0
1	14673	5.71	0
1	14989	5.81	0
1	15305	5.91	0
1	15627	6.01	0
1	15943	6.11	0
1	16259	6.21	0
1	16575	6.31	0
1	16891	6.41	0
1	17207	6.51	0
1	17523	6.61	0
1	17839	6.71	0
1	18155	6.81	0
1	18471	6.91	0
1	18793	7.01	0
1	19109	7.11	0
1	19425	7.21	0
1	19741	7.31	0
1	20057	7.41	0
1	20373	7.51	0
1	20689	7.61	0
1	21005	7.71	0
1	21321	7.81	0
1	21637	7.91	0
1	21959	8.01	0
1	22275	8.11	0
1	22591	8.21	0
1	22907	8.31	0
1	23223	8.41	0
1	23539	8.51	0
1	23855	8.61	0
1	24171	8.71	0
1	24487	8.81	0
1	24803	8.91	0
1	25125	9.01	0
1	25441	9.11	0
1	25757	9.21	0
1	26073	9.31	0
1	26389	9.41	0
1	26705	9.51	0
1	27021	9.61	0
1	27337	9.71	0
1	27653	9.81	0
1	27969	9.91	0
1	28347	10.01	0
1	28668	10.11	0
1	28989	10.21	0
1	29310	10.31	0
1	29631	10.41	0
1	29952	10.51	0
1	30273	10.61	0
1	30594	10.71	0
1	30915	10.81	0
1	31236	10.91	0
1	31563	11.01	0
1	31884	11.11	0
1	32205	11.21	0
1	32526	11.31	0
1	32847	11.41	0
1	33168	11.51	0
1	33489	11.61	0
1	33810	11.71	0
1	34131	11.81	0
1	34452	11.91	0
1	34779	12.01	0
1	35100	12.11	0
1	35421	12.21	0
1	35742	12.31	0
1	36063	12.41	0
1	36384	12.51	0
1	36705	12.61	0
1	37026	12.71	0
1	37347	12.81	0
1	37668	12.91	0
1	37995	13.01	0
1	38316	13.11	0
1	38637	13.21	0
1	38958	13.31	0
1	39279	13.41	0
1	39600	13.51	0
1	39921	13.61	0
1	40242	13.71	0
1	40563	13.81	0
1	40884	13.91	0
1	41211	14.01	0
1	41532	14.11	0
1	41853	14.21	0
1	42174	14.31	0
1	42495	14.41	0
1	42816	14.51	0
1	43137	14.61	0
1	43458	14.71	0
1	43779	14.81	0
1	44100	14.91	0
1	44427	15.01	0
1	44748	15.11	0
1	45069	15.21	0
1	45390	15.31	0
1	45711	15.41	0
1	46032	15.51	0
1	46353	15.61	0
1	46674	15.71	0
1	46995	15.81	0
1	47316	15.91	0
1	47643	16.01	0
1	47964	16.11	0
1	48285	16.21	0
1	48606	16.31	0
1	48927	16.41	0
1	49248	16.51	0
1	49569	16.61	0
1	49890	16.71	0
1	50211	16.81	0
1	50532	16.91	0
1	50859	17.01	0
1	51180	17.11	0
1	51501	17.21	0
1	51822	17.31	0
1	52143	17.41	0
1	52464	17.51	0
1	52785	17.61	0
1	53106	17.71	0
1	53427	17.81	0
1	53748	17.91	0
1	54075	18.01	0
1	54396	18.11	0
1	54717	18.21	0
1	55038	18.31	0
1	55359	18.41	0
1	55680	18.51	0
1	56001	18.61	0
1	56322	18.71	0
1	56643	18.81	0
1	56964	18.91	0
1	57291	19.01	0
1	57612	19.11	0
1	57933	19.21	0
1	58254	19.31	0
1	58575	19.41	0
1	58896	19.51	0
1	59217	19.61	0
1	59538	19.71	0
1	59859	19.81	0
1	60180	19.91	0
1	60507	20.01	0
1	60828	20.11	0
1	61149	20.21	0
1	61470	20.31	0
1	61791	20.41	0
1	62112	20.51	0
1	62433	20.61	0
1	62754	20.71	0
1	63075	20.81	0
1	63396	20.91	0
1	63723	21.01	0
1	64044	21.11	0
1	64365	21.21	0
1	64686	21.31	0
1	65007	21.41	0
1	65328	21.51	0
1	65649	21.61	0
1	65970	21.71	0
1	66291	21.81	0
1	66612	21.91	0
1	66939	22.01	0
1	67260	22.11	0
1	67581	22.21	0
1	67902	22.31	0
1	68223	22.41	0
1	68544	22.51	0
1	68865	22.61	0
1	69186	22.71	0
1	69507	22.81	0
1	69828	22.91	0
1	70155	23.01	0
1	70476	23.11	0
1	70797	23.21	0
1	71118	23.31	0
1	71439	23.41	0
1	71760	23.51	0
1	72081	23.61	0
1	72402	23.71	0
1	72723	23.81	0
1	73044	23.91	0
1	73371	24.01	0
1	73692	24.11	0
1	74013	24.21	0
1	74334	24.31	0
1	74655	24.41	0
1	74976	24.51	0
1	75297	24.61	0
1	75618	24.71	0
1	75939	24.81	0
1	76260	24.91	0
1	76587	25.01	0
1	76908	25.11	0
1	77229	25.21	0
1	77550	25.31	0
1	77871	25.41	0
1	78192	25.51	0
1	78513	25.61	0
1	78834	25.71	0
1	79155	25.81	0
1	79476	25.91	0
1	79803	26.01	0
1	80124	26.11	0
1	80445	26.21	0
1	80766	26.31	0
1	81087	26.41	0
1	81408	26.51	0
1	81729	26.61	0
1	82050	26.71	0
1	82371	26.81	0
1	82692	26.91	0
1	83019	27.01	0
1	83340	27.11	0
1	83661	27.21	0
1	83982	27.31	0
1	84303	27.41	0
1	84624	27.51	0
1	84945	27.61	0
1	85266	27.71	0
1	85587	27.81	0
1	85908	27.91	0
1	86235	28.01	0
1	86556	28.11	0
1	86877	28.21	0
1	87198	28.31	0
1	87519	28.41	0
1	87840	28.51	0
1	88161	28.61	0
1	88482	28.71	0
1	88803	28.81	0
1	89124	28.91	0
1	89451	29.01	0
1	89772	29.11	0
1	90093	29.21	0
1	90414	29.31	0
1	90735	29.41	0
1	91056	29.51	0
1	91377	29.61	0
1	91698	29.71	0
1	92019	29.81	0
1	92340	29.91	0
1	92667	30.01	0
1	92988	30.11	0
1	93309	30.21	0
1	93630	30.31	0
1	93951	30.41	0
1	94272	30.51	0
1	94593	30.61	0
1	94914	30.71	0
1	95235	30.81	0
1	95556	30.91	0
1	95883	31.01	0
1	96204	31.11	0
1	96525	31.21	0
1	96846	31.31	0
1	97167	31.41	0
1	97488	31.51	0
1	97809	31.61	0
1	98130	31.71	0
1	98451	31.81	0
1	98772	31.91	0
1	99099	32.01	0
1	99420	32.11	0
1	99741	32.21	0
1	100062	32.31	0
1	100383	32.41	0
1	100704	32.51	0
1	101025	32.61	0
1	101346	32.71	0
1	101667	32.81	0
1	101988	32.91	0
1	102315	33.01	0
1	102636	33.11	0
1	102957	33.21	0
1	103278	33.31	0
1	103599	33.41	0
1	103920	33.51	0
1	104241	33.61	0
1	104562	33.71	0
1	104883	33.81	0
1	105204	33.91	0
1	105531	34.01	0
1	105852	34.11	0
1	106173	34.21	0
1	106494	34.31	0
1	106815	34.41	0
1	107136	34.51	0
1	107457	34.61	0
1	107778	34.71	0
1	108099	34.81	0
1	108420	34.91	0
1	108747	35.01	0
1	109068	35.11	0
1	109389	35.21	0
1	109710	35.31	0
1	110031	35.41	0
1	110352	35.51	0
1	110673	35.61	0
1	110994	35.71	0
1	111315	35.81	0
1	111636	35.91	0
1	111963	36.01	0
1	112284	36.11	0
1	112605	36.21	0
1	112926	36.31	0
1	113247	36.41	0
1	113568	36.51	0
1	113889	36.61	0
1	114210	36.71	0
1	114531	36.81	0
1	114852	36.91	0
1	115179	37.01	0
1	115500	37.11	0
1	115821	37.21	0
1	116142	37.31	0
1	116463	37.41	0
1	116784	37.51	0
1	117105	37.61	0
1	117426	37.71	0
1	117747	37.81	0
1	118068	37.91	0
1	118395	38.01	0
1	118716	38.11	0
1	119037	38.21	0
1	119358	38.31	0
1	119679	38.41	0
1	120000	38.51	0
1	120321	38.61	0
1	120642	38.71	0
1	120963	38.81	0
1	121284	38.91	0
1	121611	39.01	0
1	121932	39.11	0
1	122253	39.21	0
1	122574	39.31	0
1	122895	39.41	0
1	123216	39.51	0
1	123537	39.61	0
1	123858	39.71	0
1	124179	39.81	0
1	124500	39.91	0
1	124827	40.01	0
1	125148	40.11	0
1	125469	40.21	0
1	125790	40.31	0
1	126111	40.41	0
1	126432	40.51	0
1	126753	40.61	0
1	127074	40.71	0
1	127395	40.81	0
1	127716	40.91	0
1	128043	41.01	0
1	128364	41.11	0
1	128685	41.21	0
1	129006	41.31	0
1	129327	41.41	0
1	129648	41.51	0
1	129969	41.61	0
1	130290	41.71	0
1	130611	41.81	0
1	130932	41.91	0
1	131259	42.01	0
1	131580	42.11	0
1	131901	42.21	0
1	132222	42.31	0
1	132543	42.41	0
1	132864	42.51	0
1	133185	42.61	0
1	133579	42.71	0
1	133899	42.81	0
1	134219	42.91	0
1	134545	43.01	0
1	134865	43.11	0
1	135185	43.21	0
1	135505	43.31	0
1	135825	43.41	0
1	136145	43.51	0
1	136465	43.61	0
1	136785	43.71	0
1	137105	43.81	0
1	137425	43.91	0
1	137751	44.01	0
1	138071	44.11	0
1	138391	44.21	0
1	138711	44.31	0
1	139031	44.41	0
1	139351	44.51	0
1	139671	44.61	0
1	139991	44.71	0
1	140311	44.81	0
1	140631	44.91	0
1	140957	45.01	0
1	141277	45.11	0
1	141597	45.21	0
1	141917	45.31	0
1	142237	45.41	0
1	142557	45.51	0
1	142877	45.61	0
1	143197	45.71	0
1	143517	45.81	0
1	143837	45.91	0
1	144163	46.01	0
1	144483	46.11	0
1	144803	46.21	0
1	145123	46.31	0
1	145443	46.41	0
1	145763	46.51	0
1	146083	46.61	0
1	146403	46.71	0
1	146723	46.81	0
1	147043	46.91	0
1	147369	47.01	0
1	147689	47.11	0
1	148009	47.21	0
1	148329	47.31	0
1	148649	47.41	0
1	148969	47.51	0
1	149289	47.61	0
1	149609	47.71	0
1	149929	47.81	0
1	150249	47.91	0
1	150575	48.01	0
1	150895	48.11	0
1	151215	48.21	0
1	151535	48.31	0
1	151855	48.41	0
1	152248	48.51	0
1	152567	48.61	0
1	152886	48.71	0
1	153205	48.81	0
1	153524	48.91	0
1	153849	49.01	0
1	154168	49.11	0
1	154487	49.21	0
1	154806	49.31	0
1	155125	49.41	0
1	155444	49.51	0
1	155763	49.61	0
1	156082	49.71	0
1	156401	49.81	0
1	156720	49.91	0
1	157045	50.01	0
1	157364	50.11	0
1	157683	50.21	0
1	158002	50.31	0
1	158321	50.41	0
1	158640	50.51	0
1	158959	50.61	0
1	159278	50.71	0
1	159597	50.81	0
1	159916	50.91	0
1	160241	51.01	0
1	160560	51.11	0
1	160879	51.21	0
1	161198	51.31	0
1	161517	51.41	0
1	161836	51.51	0
1	162155	51.61	0
1	162474	51.71	0
1	162793	51.81	0
1	163112	51.91	0
1	163437	52.01	0
1	163756	52.11	0
1	164075	52.21	0
1	164394	52.31	0
1	164713	52.41	0
1	165032	52.51	0
1	165351	52.61	0
1	165670	52.71	0
1	165989	52.81	0
1	166308	52.91	0
1	166633	53.01	0
1	166952	53.11	0
1	167271	53.21	0
1	167590	53.31	0
1	167909	53.41	0
1	168228	53.51	0
1	168547	53.61	0
1	168866	53.71	0
1	169258	53.81	0
1	169576	53.91	0
1	169900	54.01	0
1	170218	54.11	0
1	170536	54.21	0
1	170854	54.31	0
1	171172	54.41	0
1	171490	54.51	0
1	171808	54.61	0
1	172126	54.71	0
1	172444	54.81	0
1	172762	54.91	0
1	173086	55.01	0
1	173404	55.11	0
1	173722	55.21	0
1	174040	55.31	0
1	174358	55.41	0
1	174676	55.51	0
1	174994	55.61	0
1	175312	55.71	0
1	175630	55.81	0
1	175948	55.91	0
1	176272	56.01	0
1	176590	56.11	0
1	176908	56.21	0
1	177226	56.31	0
1	177544	56.41	0
1	177862	56.51	0
1	178180	56.61	0
1	178498	56.71	0
1	178816	56.81	0
1	179134	56.91	0
1	179458	57.01	0
1	179776	57.11	0
1	180094	57.21	0
1	180412	57.31	0
1	180730	57.41	0
1	181048	57.51	0
1	181366	57.61	0
1	181684	57.71	0
1	182002	57.81	0
1	182320	57.91	0
1	182644	58.01	0
1	182962	58.11	0
1	183280	58.21	0
1	183598	58.31	0
1	183916	58.41	0
1	184234	58.51	0
1	184625	58.61	0
1	184942	58.71	0
1	185259	58.81	0
1	185576	58.91	0
1	185899	59.01	0
1	186216	59.11	0
1	186533	59.21	0
1	186850	59.31	0
1	187167	59.41	0
1	187484	59.51	0
1	187801	59.61	0
1	188118	59.71	0
1	188435	59.81	0
1	188752	59.91	0
1	189075	60.01	0
1	189392	60.11	0
1	189709	60.21	0
1	190026	60.31	0
1	190343	60.41	0
1	190660	60.51	0
1	190977	60.61	0
1	191294	60.71	0
1	191611	60.81	0
1	191928	60.91	0
1	192251	61.01	0
1	192568	61.11	0
1	192885	61.21	0
1	193202	61.31	0
1	193519	61.41	0
1	193836	61.51	0
1	194153	61.61	0
1	194470	61.71	0
1	194787	61.81	0
1	195104	61.91	0
1	195427	62.01	0
1	195744	62.11	0
1	196061	62.21	0
1	196378	62.31	0
1	196695	62.41	0
1	197012	62.51	0
1	197329	62.61	0
1	197646	62.71	0
1	197963	62.81	0
1	198280	62.91	0
1	198603	63.01	0
1	198920	63.11	0
1	199237	63.21	0
1	199992	63.31	0
1	200308	63.41	0
1	200624	63.51	0
1	200940	63.61	0
1	201256	63.71	0
1	201572	63.81	0
1	201888	63.91	0
1	202210	64.01	0
1	202526	64.11	0
1	202842	64.21	0
1	203158	64.31	0
1	203474	64.41	0
1	203790	64.51	0
1	204106	64.61	0
1	204422	64.71	0
1	204738	64.81	0
1	205054	64.91	0
1	205376	65.01	0
1	205692	65.11	0
1	206008	65.21	0
1	206324	65.31	0
1	206640	65.41	0
1	206956	65.51	0
1	207272	65.61	0
1	207588	65.71	0
1	207904	65.81	0
1	208220	65.91	0
1	208542	66.01	0
1	208858	66.11	0
1	209174	66.21	0
1	209490	66.31	0
1	209806	66.41	0
1	210122	66.51	0
1	210438	66.61	0
1	210754	66.71	0
1	211070	66.81	0
1	211386	66.91	0
1	211708	67.01	0
1	212024	67.11	0
1	212340	67.21	0
1	212656	67.31	0
1	212972	67.41	0
1	213288	67.51	0
1	213604	67.61	0
1	213920	67.71	0
1	214236	67.81	0
1	214552	67.91	0
1	214874	68.01	0
1	215190	68.11	0
1	215506	68.21	0
1	215822	68.31	0
1	216138	68.41	0
1	216454	68.51	0
1	216770	68.61	0
1	217086	68.71	0
1	217402	68.81	0
1	217718	68.91	0
1	218040	69.01	0
1	218356	69.11	0
1	218672	69.21	0
1	218988	69.31	0
1	219304	69.41	0
1	219620	69.51	0
1	219936	69.61	0
1	220252	69.71	0
1	220568	69.81	0
1	220884	69.91	0
1	221206	70.01	0
1	221522	70.11	0
1	221838	70.21	0
1	222154	70.31	0
1	222470	70.41	0
1	222786	70.51	0
1	223102	70.61	0
1	223418	70.71	0
1	223734	70.81	0
1	224050	70.91	0
1	224372	71.01	0
1	224688	71.11	0
1	225004	71.21	0
1	225320	71.31	0
1	225636	71.41	0
1	225952	71.51	0
1	226268	71.61	0
1	226584	71.71	0
1	226900	71.81	0
1	227216	71.91	0
1	227538	72.01	0
1	227854	72.11	0
1	228170	72.21	0
1	228486	72.31	0
1	228802	72.41	0
1	229118	72.51	0
1	229434	72.61	0
1	229750	72.71	0
1	230066	72.81	0
1	230382	72.91	0
1	230704	73.01	0
1	231020	73.11	0
1	231336	73.21	0
1	231652	73.31	0
1	231968	73.41	0
1	232284	73.51	0
1	232600	73.61	0
1	232916	73.71	0
1	233232	73.81	0
1	233548	73.91	0
1	233870	74.01	0
1	234186	74.11	0
1	234502	74.21	0
1	234818	74.31	0
1	235134	74.41	0
1	235450	74.51	0
1	235766	74.61	0
1	236082	74.71	0
1	236398	74.81	0
1	236714	74.91	0
1	237036	75.01	0
1	237352	75.11	0
1	237668	75.21	0
1	237984	75.31	0
1	238300	75.41	0
1	238616	75.51	0
1	238932	75.61	0
1	239248	75.71	0
1	239564	75.81	0
1	239880	75.91	0
1	240202	76.01	0
1	240518	76.11	0
1	240834	76.21	0
1	241150	76.31	0
1	241466	76.41	0
1	241782	76.51	0
1	242098	76.61	0
1	242414	76.71	0
1	242730	76.81	0
1	243046	76.91	0
1	243368	77.01	0
1	243684	77.11	0
1	244000	77.21	0
1	244316	77.31	0
1	244632	77.41	0
1	244948	77.51	0
1	245264	77.61	0
1	245580	77.71	0
1	245896	77.81	0
1	246212	77.91	0
1	246534	78.01	0
1	246850	78.11	0
1	247166	78.21	0
1	247482	78.31	0
1	247798	78.41	0
1	248114	78.51	0
1	248430	78.61	0
1	248746	78.71	0
1	249062	78.81	0
1	249378	78.91	0
1	249700	79.01	0
1	250016	79.11	0
1	250332	79.21	0
1	250648	79.31	0
1	250964	79.41	0
1	251280	79.51	0
1	251596	79.61	0
1	251912	79.71	0
1	252228	79.81	0
1	252544	79.91	0
1	252866	80.01	0
1	253182	80.11	0
1	253498	80.21	0
1	253814	80.31	0
1	254130	80.41	0
1	254446	80.51	0
1	254762	80.61	0
1	255078	80.71	0
1	255394	80.81	0
1	255710	80.91	0
1	256032	81.01	0
1	256348	81.11	0
1	256664	81.21	0
1	256980	81.31	0
1	257296	81.41	0
1	257612	81.51	0
1	257928	81.61	0
1	258244	81.71	0
1	258560	81.81	0
1	258876	81.91	0
1	259198	82.01	0
1	259514	82.11	0
1	259830	82.21	0
1	260146	82.31	0
1	260462	82.41	0
1	260778	82.51	0
1	261094	82.61	0
1	261410	82.71	0
1	261726	82.81	0
1	262042	82.91	0
1	262364	83.01	0
1	262680	83.11	0
1	262996	83.21	0
1	263312	83.31	0
1	263628	83.41	0
1	263944	83.51	0
1	264260	83.61	0
1	264576	83.71	0
1	264892	83.81	0
1	265208	83.91	0
1	265530	84.01	0
1	265846	84.11	0
1	266162	84.21	0
1	266478	84.31	0
1	266794	84.41	0
1	267110	84.51	0
1	267426	84.61	0
1	267742	84.71	0
1	268058	84.81	0
1	268374	84.91	0
1	268696	85.01	0
1	269012	85.11	0
1	269328	85.21	0
1	269644	85.31	0
1	269960	85.41	0
1	270276	85.51	0
1	270592	85.61	0
1	270908	85.71	0
1	271224	85.81	0
1	271540	85.91	0
1	271862	86.01	0
1	272178	86.11	0
1	272494	86.21	0
1	272810	86.31	0
1	273126	86.41	0
1	273442	86.51	0
1	273758	86.61	0
1	274074	86.71	0
1	274390	86.81	0
1	274706	86.91	0
1	275028	87.01	0
1	275344	87.11	0
1	275660	87.21	0
1	275976	87.31	0
1	276292	87.41	0
1	276608	87.51	0
1	276924	87.61	0
1	277240	87.71	0
1	277556	87.81	0
1	277872	87.91	0
1	278194	88.01	0
1	278510	88.11	0
1	278826	88.21	0
1	279142	88.31	0
1	279458	88.41	0
1	279774	88.51	0
1	280090	88.61	0
1	280406	88.71	0
1	280722	88.81	0
1	281038	88.91	0
1	281360	89.01	0
1	281676	89.11	0
1	281992	89.21	0
1	282308	89.31	0
1	282624	89.41	0
1	282940	89.51	0
1	283256	89.61	0
1	283572	89.71	0
1	283888	89.81	0
1	284204	89.91	0
1	284526	90.01	0
1	284842	90.11	0
1	285158	90.21	0
1	285474	90.31	0
1	285790	90.41	0
1	286106	90.51	0
1	286422	90.61	0
1	286738	90.71	0
1	287054	90.81	0
1	287370	90.91	0
1	287692	91.01	0
1	288008	91.11	0
1	288324	91.21	0
1	288640	91.31	0
1	288956	91.41	0
1	289272	91.51	0
1	289588	91.61	0
1	289904	91.71	0
1	290220	91.81	0
1	290536	91.91	0
1	290858	92.01	0
1	291174	92.11	0
1	291490	92.21	0
1	291806	92.31	0
1	292122	92.41	0
1	292438	92.51	0
1	292754	92.61	0
1	293070	92.71	0
1	293386	92.81	0
1	293702	92.91	0
1	294024	93.01	0
1	294340	93.11	0
1	294656	93.21	0
1	294972	93.31	0
1	295288	93.41	0
1	295604	93.51	0
1	295920	93.61	0
1	296236	93.71	0
1	296552	93.81	0
1	296868	93.91	0
1	297190	94.01	0
1	297506	94.11	0
1	297822	94.21	0
1	298138	94.31	0
1	298454	94.41	0
1	298770	94.51	0
1	299086	94.61	0
1	299402	94.71	0
1	299718	94.81	0
1	300034	94.91	0
1	300356	95.01	0
1	300672	95.11	0
1	300988	95.21	0
1	301304	95.31	0
1	301620	95.41	0
1	301936	95.51	0
1	302252	95.61	0
1	302568	95.71	0
1	302884	95.81	0
1	303200	95.91	0
1	303522	96.01	0
1	303838	96.11	0
1	304154	96.21	0
1	304470	96.31	0
1	304786	96.41	0
1	305102	96.51	0
1	305418	96.61	0
1	305734	96.71	0
1	306050	96.81	0
1	306366	96.91	0
1	306688	97.01	0
1	307004	97.11	0
1	307320	97.21	0
1	307636	97.31	0
1	307952	97.41	0
1	308268	97.51	0
1	308584	97.61	0
1	308900	97.71	0
1	309216	97.81	0
1	309532	97.91	0
1	309854	98.01	0
1	310170	98.11	0
1	310486	98.21	0
1	310802	98.31	0
1	311118	98.41	0
1	311434	98.51	0
1	311750	98.61	0
1	312066	98.71	0
1	312382	98.81	0
1	312698	98.91	0
1	313020	99.01	0
1	313336	99.11	0
1	313652	99.21	0
1	313968	99.31	0
1	314284	99.41	0
1	314600	99.51	0
1	314916	99.61	0
1	315232	99.71	0
1	315548	99.81	0
1	315864	99.91	0
2	113	1.11	0
2	429	1.21	0
2	745	1.31	0
2	1061	1.41	0
2	1377	1.51	0
2	1693	1.61	0
2	2009	1.71	0
2	2325	1.81	0
2	2641	1.91	0
2	2963	2.01	0
2	3279	2.11	0
2	3595	2.21	0
2	3911	2.31	0
2	4227	2.41	0
2	4543	2.51	0
2	4859	2.61	0
2	5175	2.71	0
2	5491	2.81	0
2	5807	2.91	0
2	6129	3.01	0
2	6445	3.11	0
2	6761	3.21	0
2	7077	3.31	0
2	7393	3.41	0
2	7709	3.51	0
2	8025	3.61	0
2	8341	3.71	0
2	8657	3.81	0
2	8973	3.91	0
2	9295	4.01	0
2	9611	4.11	0
2	9927	4.21	0
2	10243	4.31	0
2	10559	4.41	0
2	10875	4.51	0
2	11191	4.61	0
2	11507	4.71	0
2	11823	4.81	0
2	12139	4.91	0
2	12461	5.01	0
2	12777	5.11	0
2	13093	5.21	0
2	13409	5.31	0
2	13725	5.41	0
2	14041	5.51	0
2	14357	5.61	0
2	14673	5.71	0
2	14989	5.81	0
2	15305	5.91	0
2	15627	6.01	0
2	15943	6.11	0
2	16259	6.21	0
2	16575	6.31	0
2	16891	6.41	0
2	17207	6.51	0
2	17523	6.61	0
2	17839	6.71	0
2	18155	6.81	0
2	18471	6.91	0
2	18793	7.01	0
2	19109	7.11	0
2	19425	7.21	0
2	19741	7.31	0
2	20057	7.41	0
2	20373	7.51	0
2	20689	7.61	0
2	21005	7.71	0
2	21321	7.81	0
2	21637	7.91	0
2	21959	8.01	0
2	22275	8.11	0
2	22591	8.21	0
2	22907	8.31	0
2	23223	8.41	0
2	23539	8.51	0
2	23855	8.61	0
2	24171	8.71	0
2	24487	8.81	0
2	24803	8.91	0
2	25125	9.01	0
2	25441	9.11	0
2	25757	9.21	0
2	26073	9.31	0
2	26389	9.41	0
2	26705	9.51	0
2	27021	9.61	0
2	27337	9.71	0
2	27653	9.81	0
2	27969	9.91	0
2	28347	10.01	0
2	28668	10.11	0
2	28989	10.21	0
2	29310	10.31	0
2	29631	10.41	0
2	29952	10.51	0
2	30273	10.61	0
2	30594	10.71	0
2	30915	10.81	0
2	31236	10.91	0
2	31563	11.01	0
2	31884	11.11	0
2	32205	11.21	0
2	32526	11.31	0
2	32847	11.41	0
2	33168	11.51	0
2	33489	11.61	0
2	33810	11.71	0
2	34131	11.81	0
2	34452	11.91	0
2	34779	12.01	0
2	35100	12.11	0
2	35421	12.21	0
2	35742	12.31	0
2	36063	12.41	0
2	36384	12.51	0
2	36705	12.61	0
2	37026	12.71	0
2	37347	12.81	0
2	37668	12.91	0
2	37995	13.01	0
2	38316	13.11	0
2	38637	13.21	0
2	38958	13.31	0
2	39279	13.41	0
2	39600	13.51	0
2	39921	13.61	0
2	40242	13.71	0
2	40563	13.81	0
2	40884	13.91	0
2	41211	14.01	0
2	41532	14.11	0
2	41853	14.21	0
2	42174	14.31	0
2	42495	14.41	0
2	42816	14.51	0
2	43137	14.61	0
2	43458	14.71	0
2	43779	14.81	0
2	44100	14.91	0
2	44427	15.01	0
2	44748	15.11	0
2	45069	15.21	0
2	45390	15.31	0
2	45711	15.41	0
2	46032	15.51	0
2	46353	15.61	0
2	46674	15.71	0
2	46995	15.81	0
2	47316	15.91	0
2	47643	16.01	0
2	47964	16.11	0
2	48285	16.21	0
2	48606	16.31	0
2	48927	16.41	0
2	49248	16.51	0
2	49569	16.61	0
2	49890	16.71	0
2	50211	16.81	0
2	50532	16.91	0
2	50859	17.01	0
2	51180	17.11	0
2	51501	17.21	0
2	51822	17.31	0
2	52143	17.41	0
2	52464	17.51	0
2	52785	17.61	0
2	53106	17.71	0
2	53427	17.81	0
2	53748	17.91	0
2	54075	18.01	0
2	54396	18.11	0
2	54717	18.21	0
2	55038	18.31	0
2	55359	18.41	0
2	55680	18.51	0
2	56001	18.61	0
2	56322	18.71	0
2	56643	18.81	0
2	56964	18.91	0
2	57291	19.01	0
2	57612	19.11	0
2	57933	19.21	0
2	58254	19.31	0
2	58575	19.41	0
2	58896	19.51	0
2	59217	19.61	0
2	59538	19.71	0
2	59859	19.81	0
2	60180	19.91	0
2	60507	20.01	0
2	60828	20.11	0
2	61149	20.21	0
2	61470	20.31	0
2	61791	20.41	0
2	62112	20.51	0
2	62433	20.61	0
2	62754	20.71	0
2	63075	20.81	0
2	63396	20.91	0
2	63723	21.01	0
2	64044	21.11	0
2	64365	21.21	0
2	64686	21.31	0
2	65007	21.41	0
2	65328	21.51	0
2	65649	21.61	0
2	65970	21.71	0
2	66291	21.81	0
2	66612	21.91	0
2	66939	22.01	0
2	67260	22.11	0
2	67581	22.21	0
2	67902	22.31	0
2	68223	22.41	0
2	68544	22.51	0
2	68865	22.61	0
2	69186	22.71	0
2	69507	22.81	0
2	69828	22.91	0
2	70155	23.01	0
2	70476	23.11	0
2	70797	23.21	0
2	71118	23.31	0
2	71439	23.41	0
2	71760	23.51	0
2	72081	23.61	0
2	72402	23.71	0
2	72723	23.81	0
2	73044	23.91	0
2	73371	24.01	0
2	73692	24.11	0
2	74013	24.21	0
2	74334	24.31	0
2	74655	24.41	0
2	74976	24.51	0
2	75297	24.61	0
2	75618	24.71	0
2	75939	24.81	0
2	76260	24.91	0
2	76587	25.01	0
2	76908	25.11	0
2	77229	25.21	0
2	77550	25.31	0
2	77871	25.41	0
2	78192	25.51	0
2	78513	25.61	0
2	78834	25.71	0
2	79155	25.81	0
2	79476	25.91	0
2	79803	26.01	0
2	80124	26.11	0
2	80445	26.21	0
2	80766	26.31	0
2	81087	26.41	0
2	81408	26.51	0
2	81729	26.61	0
2	82050	26.71	0
2	82371	26.81	0
2	82692	26.91	0
2	83019	27.01	0
2	83340	27.11	0
2	83661	27.21	0
2	83982	27.31	0
2	84303	27.41	0
2	84624	27.51	0
2	84945	27.61	0
2	85266	27.71	0
2	85587	27.81	0
2	85908	27.91	0
2	86235	28.01	0
2	86556	28.11	0
2	86877	28.21	0
2	87198	28.31	0
2	87519	28.41	0
2	87840	28.51	0
2	88161	28.61	0
2	88482	28.71	0
2	88803	28.81	0
2	89124	28.91	0
2	89451	29.01	0
2	89772	29.11	0
2	90093	29.21	0
2	90414	29.31	0
2	90735	29.41	0
2	91056	29.51	0
2	91377	29.61	0
2	91698	29.71	0
2	92019	29.81	0
2	92340	29.91	0
2	92667	30.01	0
2	92988	30.11	0
2	93309	30.21	0
2	93630	30.31	0
2	93951	30.41	0
2	94272	30.51	0
2	94593	30.61	0
2	94914	30.71	0
2	95235	30.81	0
2	95556	30.91	0
2	95883	31.01	0
2	96204	31.11	0
2	96525	31.21	0
2	96846	31.31	0
2	97167	31.41	0
2	97488	31.51	0
2	97809	31.61	0
2	98130	31.71	0
2	98451	31.81	0
2	98772	31.91	0
2	99099	32.01	0
2	99420	32.11	0
2	99741	32.21	0
2	100062	32.31	0
2	100383	32.41	0
2	100704	32.51	0
2	101025	32.61	0
2	101346	32.71	0
2	101667	32.81	0
2	101988	32.91	0
2	102315	33.01	0
2	102636	33.11	0
2	102957	33.21	0
2	103278	33.31	0
2	103599	33.41	0
2	103920	33.51	0
2	104241	33.61	0
2	104562	33.71	0
2	104883	33.81	0
2	105204	33.91	0
2	105531	34.01	0
2	105852	34.11	0
2	106173	34.21	0
2	106494	34.31	0
2	106815	34.41	0
2	107136	34.51	0
2	107457	34.61	0
2	107778	34.71	0
2	108099	34.81	0
2	108420	34.91	0
2	108747	35.01	0
2	109068	35.11	0
2	109389	35.21	0
2	109710	35.31	0
2	110031	35.41	0
2	110352	35.51	0
2	110673	35.61	0
2	110994	35.71	0
2	111315	35.81	0
2	111636	35.91	0
2	111963	36.01	0
2	112284	36.11	0
2	112605	36.21	0
2	112926	36.31	0
2	113247	36.41	0
2	113568	36.51	0
2	113889	36.61	0
2	114210	36.71	0
2	114531	36.81	0
2	114852	36.91	0
2	115179	37.01	0
2	115500	37.11	0
2	115821	37.21	0
2	116142	37.31	0
2	116463	37.41	0
2	116784	37.51	0
2	117105	37.61	0
2	117426	37.71	0
2	117747	37.81	0
2	118068	37.91	0
2	118395	38.01	0
2	118716	38.11	0
2	119037	38.21	0
2	119358	38.31	0
2	119679	38.41	0
2	120000	38.51	0
2	120321	38.61	0
2	120642	38.71	0
2	120963	38.81	0
2	121284	38.91	0
2	121611	39.01	0
2	121932	39.11	0
2	122253	39.21	0
2	122574	39.31	0
2	122895	39.41	0
2	123216	39.51	0
2	123537	39.61	0
2	123858	39.71	0
2	124179	39.81	0
2	124500	39.91	0
2	124827	40.01	0
2	125148	40.11	0
2	125469	40.21	0
2	125790	40.31	0
2	126111	40.41	0
2	126432	40.51	0
2	126753	40.61	0
2	127074	40.71	0
2	127395	40.81	0
2	127716	40.91	0
2	128043	41.01	0
2	128364	41.11	0
2	128685	41.21	0
2	129006	41.31	0
2	129327	41.41	0
2	129648	41.51	0
2	129969	41.61	0
2	130290	41.71	0
2	130611	41.81	0
2	130932	41.91	0
2	131259	42.01	0
2	131580	42.11	0
2	131901	42.21	0
2	132222	42.31	0
2	132543	42.41	0
2	132864	42.51	0
2	133185	42.61	0
2	133579	42.71	0
2	133899	42.81	0
2	134219	42.91	0
2	134545	43.01	0
2	134865	43.11	0
2	135185	43.21	0
2	135505	43.31	0
2	135825	43.41	0
2	136145	43.51	0
2	136465	43.61	0
2	136785	43.71	0
2	137105	43.81	0
2	137425	43.91	0
2	137751	44.01	0
2	138071	44.11	0
2	138391	44.21	0
2	138711	44.31	0
2	139031	44.41	0
2	139351	44.51	0
2	139671	44.61	0
2	139991	44.71	0
2	140311	44.81	0
2	140631	44.91	0
2	140957	45.01	0
2	141277	45.11	0
2	141597	45.21	0
2	141917	45.31	0
2	142237	45.41	0
2	142557	45.51	0
2	142877	45.61	0
2	143197	45.71	0
2	143517	45.81	0
2	143837	45.91	0
2	144163	46.01	0
2	144483	46.11	0
2	144803	46.21	0
2	145123	46.31	0
2	145443	46.41	0
2	145763	46.51	0
2	146083	46.61	0
2	146403	46.71	0
2	146723	46.81	0
2	147043	46.91	0
2	147369	47.01	0
2	147689	47.11	0
2	148009	47.21	0
2	148329	47.31	0
2	148649	47.41	0
2	148969	47.51	0
2	149289	47.61	0
2	149609	47.71	0
2	149929	47.81	0
2	150249	47.91	0
2	150575	48.01	0
2	150895	48.11	0
2	151215	48.21	0
2	151535	48.31	0
2	151855	48.41	0
2	152248	48.51	0
2	152567	48.61	0
2	152886	48.71	0
2	153205	48.81	0
2	153524	48.91	0
2	153849	49.01	0
2	154168	49.11	0
2	154487	49.21	0
2	154806	49.31	0
2	155125	49.41	0
2	155444	49.51	0
2	155763	49.61	0
2	156082	49.71	0
2	156401	49.81	0
2	156720	49.91	0
2	157045	50.01	0
2	157364	50.11	0
2	157683	50.21	0
2	158002	50.31	0
2	158321	50.41	0
2	158640	50.51	0
2	158959	50.61	0
2	159278	50.71	0
2	159597	50.81	0
2	159916	50.91	0
2	160241	51.01	0
2	160560	51.11	0
2	160879	51.21	0
2	161198	51.31	0
2	161517	51.41	0
2	161836	51.51	0
2	162155	51.61	0
2	162474	51.71	0
2	162793	51.81	0
2	163112	51.91	0
2	163437	52.01	0
2	163756	52.11	0
2	164075	52.21	0
2	164394	52.31	0
2	164713	52.41	0
2	165032	52.51	0
2	165351	52.61	0
2	165670	52.71	0
2	165989	52.81	0
2	166308	52.91	0
2	166633	53.01	0
2	166952	53.11	0
2	167271	53.21	0
2	167590	53.31	0
2	167909	53.41	0
2	168228	53.51	0
2	168547	53.61	0
2	168866	53.71	0
2	169258	53.81	0
2	169576	53.91	0
2	169900	54.01	0
2	170218	54.11	0
2	170536	54.21	0
2	170854	54.31	0
2	171172	54.41	0
2	171490	54.51	0
2	171808	54.61	0
2	172126	54.71	0
2	172444	54.81	0
2	172762	54.91	0
2	173086	55.01	0
2	173404	55.11	0
2	173722	55.21	0
2	174040	55.31	0
2	174358	55.41	0
2	174676	55.51	0
2	174994	55.61	0
2	175312	55.71	0
2	175630	55.81	0
2	175948	55.91	0
2	176272	56.01	0
2	176590	56.11	0
2	176908	56.21	0
2	177226	56.31	0
2	177544	56.41	0
2	177862	56.51	0
2	178180	56.61	0
2	178498	56.71	0
2	178816	56.81	0
2	179134	56.91	0
2	179458	57.01	0
2	179776	57.11	0
2	180094	57.21	0
2	180412	57.31	0
2	180730	57.41	0
2	181048	57.51	0
2	181366	57.61	0
2	181684	57.71	0
2	182002	57.81	0
2	182320	57.91	0
2	182644	58.01	0
2	182962	58.11	0
2	183280	58.21	0
2	183598	58.31	0
2	183916	58.41	0
2	184234	58.51	0
2	184625	58.61	0
2	184942	58.71	0
2	185259	58.81	0
2	185576	58.91	0
2	185899	59.01	0
2	186216	59.11	0
2	186533	59.21	0
2	186850	59.31	0
2	187167	59.41	0
2	187484	59.51	0
2	187801	59.61	0
2	188118	59.71	0
2	188435	59.81	0
2	188752	59.91	0
2	189075	60.01	0
2	189392	60.11	0
2	189709	60.21	0
2	190026	60.31	0
2	190343	60.41	0
2	190660	60.51	0
2	190977	60.61	0
2	191294	60.71	0
2	191611	60.81	0
2	191928	60.91	0
2	192251	61.01	0
2	192568	61.11	0
2	192885	61.21	0
2	193202	61.31	0
2	193519	61.41	0
2	193836	61.51	0
2	194153	61.61	0
2	194470	61.71	0
2	194787	61.81	0
2	195104	61.91	0
2	195427	62.01	0
2	195744	62.11	0
2	196061	62.21	0
2	196378	62.31	0
2	196695	62.41	0
2	197012	62.51	0
2	197329	62.61	0
2	197646	62.71	0
2	197963	62.81	0
2	198280	62.91	0
2	198603	63.01	0
2	198920	63.11	0
2	199237	63.21	0
2	199992	63.31	0
2	200308	63.41	0
2	200624	63.51	0
2	200940	63.61	0
2	201256	63.71	0
2	201572	63.81	0
2	201888	63.91	0
2	202210	64.01	0
2	202526	64.11	0
2	202842	64.21	0
2	203158	64.31	0
2	203474	64.41	0
2	203790	64.51	0
2	204106	64.61	0
2	204422	64.71	0
2	204738	64.81	0
2	205054	64.91	0
2	205376	65.01	0
2	205692	65.11	0
2	206008	65.21	0
2	206324	65.31	0
2	206640	65.41	0
2	206956	65.51	0
2	207272	65.61	0
2	207588	65.71	0
2	207904	65.81	0
2	208220	65.91	0
2	208542	66.01	0
2	208858	66.11	0
2	209174	66.21	0
2	209490	66.31	0
2	209806	66.41	0
2	210122	66.51	0
2	210438	66.61	0
2	210754	66.71	0
2	211070	66.81	0
2	211386	66.91	0
2	211708	67.01	0
2	212024	67.11	0
2	212340	67.21	0
2	212656	67.31	0
2	212972	67.41	0
2	213288	67.51	0
2	213604	67.61	0
2	213920	67.71	0
2	214236	67.81	0
2	214552	67.91	0
2	214874	68.01	0
2	215190	68.11	0
2	215506	68.21	0
2	215822	68.31	0
2	216138	68.41	0
2	216454	68.51	0
2	216770	68.61	0
2	217086	68.71	0
2	217402	68.81	0
2	217718	68.91	0
2	218040	69.01	0
2	218356	69.11	0
2	218672	69.21	0
2	218988	69.31	0
2	219304	69.41	0
2	219620	69.51	0
2	219936	69.61	0
2	220252	69.71	0
2	220568	69.81	0
2	220884	69.91	0
2	221206	70.01	0
2	221522	70.11	0
2	221838	70.21	0
2	222154	70.31	0
2	222470	70.41	0
2	222786	70.51	0
2	223102	70.61	0
2	223418	70.71	0
2	223734	70.81	0
2	224050	70.91	0
2	224372	71.01	0
2	224688	71.11	0
2	225004	71.21	0
2	225320	71.31	0
2	225636	71.41	0
2	225952	71.51	0
2	226268	71.61	0
2	226584	71.71	0
2	226900	71.81	0
2	227216	71.91	0
2	227538	72.01	0
2	227854	72.11	0
2	228170	72.21	0
2	228486	72.31	0
2	228802	72.41	0
2	229118	72.51	0
2	229434	72.61	0
2	229750	72.71	0
2	230066	72.81	0
2	230382	72.91	0
2	230704	73.01	0
2	231020	73.11	0
2	231336	73.21	0
2	231652	73.31	0
2	231968	73.41	0
2	232284	73.51	0
2	232600	73.61	0
2	232916	73.71	0
2	233232	73.81	0
2	233548	73.91	0
2	233870	74.01	0
2	234186	74.11	0
2	234502	74.21	0
2	234818	74.31	0
2	235134	74.41	0
2	235450	74.51	0
2	235766	74.61	0
2	236082	74.71	0
2	236398	74.81	0
2	236714	74.91	0
2	237036	75.01	0
2	237352	75.11	0
2	237668	75.21	0
2	237984	75.31	0
2	238300	75.41	0
2	238616	75.51	0
2	238932	75.61	0
2	239248	75.71	0
2	239564	75.81	0
2	239880	75.91	0
2	240202	76.01	0
2	240518	76.11	0
2	240834	76.21	0
2	241150	76.31	0
2	241466	76.41	0
2	241782	76.51	0
2	242098	76.61	0
2	242414	76.71	0
2	242730	76.81	0
2	243046	76.91	0
2	243368	77.01	0
2	243684	77.11	0
2	244000	77.21	0
2	244316	77.31	0
2	244632	77.41	0
2	244948	77.51	0
2	245264	77.61	0
2	245580	77.71	0
2	245896	77.81	0
2	246212	77.91	0
2	246534	78.01	0
2	246850	78.11	0
2	247166	78.21	0
2	247482	78.31	0
2	247798	78.41	0
2	248114	78.51	0
2	248430	78.61	0
2	248746	78.71	0
2	249062	78.81	0
2	249378	78.91	0
2	249700	79.01	0
2	250016	79.11	0
2	250332	79.21	0
2	250648	79.31	0
2	250964	79.41	0
2	251280	79.51	0
2	251596	79.61	0
2	251912	79.71	0
2	252228	79.81	0
2	252544	79.91	0
2	252866	80.01	0
2	253182	80.11	0
2	253498	80.21	0
2	253814	80.31	0
2	254130	80.41	0
2	254446	80.51	0
2	254762	80.61	0
2	255078	80.71	0
2	255394	80.81	0
2	255710	80.91	0
2	256032	81.01	0
2	256348	81.11	0
2	256664	81.21	0
2	256980	81.31	0
2	257296	81.41	0
2	257612	81.51	0
2	257928	81.61	0
2	258244	81.71	0
2	258560	81.81	0
2	258876	81.91	0
2	259198	82.01	0
2	259514	82.11	0
2	259830	82.21	0
2	260146	82.31	0
2	260462	82.41	0
2	260778	82.51	0
2	261094	82.61	0
2	261410	82.71	0
2	261726	82.81	0
2	262042	82.91	0
2	262364	83.01	0
2	262680	83.11	0
2	262996	83.21	0
2	263312	83.31	0
2	263628	83.41	0
2	263944	83.51	0
2	264260	83.61	0
2	264576	83.71	0
2	264892	83.81	0
2	265208	83.91	0
2	265530	84.01	0
2	265846	84.11	0
2	266162	84.21	0
2	266478	84.31	0
2	266794	84.41	0
2	267110	84.51	0
2	267426	84.61	0
2	267742	84.71	0
2	268058	84.81	0
2	268374	84.91	0
2	268696	85.01	0
2	269012	85.11	0
2	269328	85.21	0
2	269644	85.31	0
2	269960	85.41	0
2	270276	85.51	0
2	270592	85.61	0
2	270908	85.71	0
2	271224	85.81	0
2	271540	85.91	0
2	271862	86.01	0
2	272178	86.11	0
2	272494	86.21	0
2	272810	86.31	0
2	273126	86.41	0
2	273442	86.51	0
2	273758	86.61	0
2	274074	86.71	0
2	274390	86.81	0
2	274706	86.91	0
2	275028	87.01	0
2	275344	87.11	0
2	275660	87.21	0
2	275976	87.31	0
2	276292	87.41	0
2	276608	87.51	0
2	276924	87.61	0
2	277240	87.71	0
2	277556	87.81	0
2	277872	87.91	0
2	278194	88.01	0
2	278510	88.11	0
2	278826	88.21	0
2	279142	88.31	0
2	279458	88.41	0
2	279774	88.51	0
2	280090	88.61	0
2	280406	88.71	0
2	280722	88.81	0
2	281038	88.91	0
2	281360	89.01	0
2	281676	89.11	0
2	281992	89.21	0
2	282308	89.31	0
2	282624	89.41	0
2	282940	89.51	0
2	283256	89.61	0
2	283572	89.71	0
2	283888	89.81	0
2	284204	89.91	0
2	284526	90.01	0
2	284842	90.11	0
2	285158	90.21	0
2	285474	90.31	0
2	285790	90.41	0
2	286106	90.51	0
2	286422	90.61	0
2	286738	90.71	0
2	287054	90.81	0
2	287370	90.91	0
2	287692	91.01	0
2	288008	91.11	0
2	288324	91.21	0
2	288640	91.31	0
2	288956	91.41	0
2	289272	91.51	0
2	289588	91.61	0
2	289904	91.71	0
2	290220	91.81	0
2	290536	91.91	0
2	290858	92.01	0
2	291174	92.11	0
2	291490	92.21	0
2	291806	92.31	0
2	292122	92.41	0
2	292438	92.51	0
2	292754	92.61	0
2	293070	92.71	0
2	293386	92.81	0
2	293702	92.91	0
2	294024	93.01	0
2	294340	93.11	0
2	294656	93.21	0
2	294972	93.31	0
2	295288	93.41	0
2	295604	93.51	0
2	295920	93.61	0
2	296236	93.71	0
2	296552	93.81	0
2	296868	93.91	0
2	297190	94.01	0
2	297506	94.11	0
2	297822	94.21	0
2	298138	94.31	0
2	298454	94.41	0
2	298770	94.51	0
2	299086	94.61	0
2	299402	94.71	0
2	299718	94.81	0
2	300034	94.91	0
2	300356	95.01	0
2	300672	95.11	0
2	300988	95.21	0
2	301304	95.31	0
2	301620	95.41	0
2	301936	95.51	0
2	302252	95.61	0
2	302568	95.71	0
2	302884	95.81	0
2	303200	95.91	0
2	303522	96.01	0
2	303838	96.11	0
2	304154	96.21	0
2	304470	96.31	0
2	304786	96.41	0
2	305102	96.51	0
2	305418	96.61	0
2	305734	96.71	0
2	306050	96.81	0
2	306366	96.91	0
2	306688	97.01	0
2	307004	97.11	0
2	307320	97.21	0
2	307636	97.31	0
2	307952	97.41	0
2	308268	97.51	0
2	308584	97.61	0
2	308900	97.71	0
2	309216	97.81	0
2	309532	97.91	0
2	309854	98.01	0
2	310170	98.11	0
2	310486	98.21	0
2	310802	98.31	0
2	311118	98.41	0
2	311434	98.51	0
2	311750	98.61	0
2	312066	98.71	0
2	312382	98.81	0
2	312698	98.91	0
2	313020	99.01	0
2	313336	99.11	0
2	313652	99.21	0
2	313968	99.31	0
2	314284	99.41	0
2	314600	99.51	0
2	314916	99.61	0
2	315232	99.71	0
2	315548	99.81	0
2	315864	99.91	0
3	113	1.11	0.000179096
3	429	1.21	0.000340852
3	745	1.31	0.000467435
3	1061	1.41	0.000562893
3	1377	1.51	0.000631106
3	1693	1.61	0.000675745
3	2009	1.71	0.000700245
3	2325	1.81	0.000707784
3	2641	1.91	0.000701273
3	2963	2.01	0.000683354
3	3279	2.11	0.000656398
3	3595	2.21	0.000622512
3	3911	2.31	0.000583548
3	4227	2.41	0.000541117
3	4543	2.51	0.000496604
3	4859	2.61	0.000451181
3	5175	2.71	0.000405825
3	5491	2.81	0.00036134
3	5807	2.91	0.000318365
3	6129	3.01	0.0002774
3	6445	3.11	0.00023882
3	6761	3.21	0.000202887
3	7077	3.31	0.00016977
3	7393	3.41	0.000139558
3	7709	3.51	0.000112271
3	8025	3.61	8.78717e-05
3	8341	3.71	6.628e-05
3	8657	3.81	4.73785e-05
3	8973	3.91	3.1023e-05
3	9295	4.01	1.70493e-05
3	9611	4.11	5.28023e-06
3	9927	4.21	-4.46922e-06
3	10243	4.31	-1.2387e-05
3	10559	4.41	-1.86602e-05
3	10875	4.51	-2.34717e-05
3	11191	4.61	-2.69978e-05
3	11507	4.71	-2.94062e-05
3	11823	4.81	-3.08545e-05
3	12139	4.91	-3.14892e-05
3	12461	5.01	-3.14451e-05
3	12777	5.11	-3.0845e-05
3	13093	5.21	-2.97994e-05
3	13409	5.31	-2.84072e-05
3	13725	5.41	-2.67556e-05
3	14041	5.51	-2.49208e-05
3	14357	5.61	-2.29687e-05
3	14673	5.71	-2.09553e-05
3	14989	5.81	-1.89277e-05
3	15305	5.91	-1.6925e-05
3	15627	6.01	-1.49784e-05
3	15943	6.11	-1.31129e-05
3	16259	6.21	-1.13474e-05
3	16575	6.31	-9.69553e-06
3	16891	6.41	-8.16651e-06
3	17207	6.51	-6.76571e-06
3	17523	6.61	-5.49522e-06
3	17839	6.71	-4.35441e-06
3	18155	6.81	-3.34045e-06
3	18471	6.91	-2.44874e-06
3	18793	7.01	-1.6733e-06
3	19109	7.11	-1.00716e-06
3	19425	7.21	-4.42628e-07
3	19741	7.31	2.84224e-08
3	20057	7.41	4.14339e-07
3	20373	7.51	7.23492e-07
3	20689	7.61	9.6413e-07
3	21005	7.71	1.14424e-06
3	21321	7.81	1.27148e-06
3	21637	7.91	1.35305e-06
3	21959	8.01	1.3957e-06
3	22275	8.11	1.40565e-06
3	22591	8.21	1.3886e-06
3	22907	8.31	1.34971e-06
3	23223	8.41	1.2936e-06
3	23539	8.51	1.22437e-06
3	23855	8.61	1.14561e-06
3	24171	8.71	1.06046e-06
3	24487	8.81	9.71582e-07
3	24803	8.91	8.81246e-07
3	25125	9.01	7.91334e-07
3	25441	9.11	7.03381e-07
3	25757	9.21	6.18613e-07
3	26073	9.31	5.37979e-07
3	26389	9.41	4.62183e-07
3	26705	9.51	3.91714e-07
3	27021	9.61	3.26878e-07
3	27337	9.71	2.67827e-07
3	27653	9.81	2.14581e-07
3	27969	9.91	1.67052e-07
3	28347	10.01	1.25066e-07
3	28668	10.11	8.83794e-08
3	28989	10.21	5.66978e-08
3	29310	10.31	2.96922e-08
3	29631	10.41	7.00453e-09
3	29952	10.51	-1.17325e-08
3	30273	10.61	-2.68933e-08
3	30594	10.71	-3.88482e-08
3	30915	10.81	-4.79581e-08
3	31236	10.91	-5.45704e-08
3	31563	11.01	-5.90177e-08
3	31884	11.11	-6.16069e-08
3	32205	11.21	-6.26265e-08
3	32526	11.31	-6.23395e-08
3	32847	11.41	-6.09859e-08
3	33168	11.51	-5.87811e-08
3	33489	11.61	-5.59183e-08
3	33810	11.71	-5.25674e-08
3	34131	11.81	-4.88761e-08
3	34452	11.91	-4.4971e-08
3	34779	12.01	-4.09599e-08
3	35100	12.11	-3.69354e-08
3	35421	12.21	-3.29713e-08
3	35742	12.31	-2.9128e-08
3	36063	12.41	-2.54531e-08
3	36384	12.51	-2.19821e-08
3	36705	12.61	-1.87399e-08
3	37026	12.71	-1.57428e-08
3	37347	12.81	-1.30029e-08
3	37668	12.91	-1.05217e-08
3	37995	13.01	-8.29772e-09
3	38316	13.11	-6.32454e-09
3	38637	13.21	-4.59224e-09
3	38958	13.31	-3.08802e-09
3	39279	13.41	-1.79838e-09
3	39600	13.51	-7.08411e-10
3	39921	13.61	1.98241e-10
3	40242	13.71	9.37916e-10
3	40563	13.81	1.52767e-09
3	40884	13.91	1.98384e-09
3	41211	14.01	2.32276e-09
3	41532	14.11	2.55937e-09
3	41853	14.21	2.70788e-09
3	42174	14.31	2.78249e-09
3	42495	14.41	2.79243e-09
3	42816	14.51	2.7498e-09
3	43137	14.61	2.66525e-09
3	43458	14.71	2.54872e-09
3	43779	14.81	2.40803e-09
3	44100	14.91	2.24887e-09
3	44427	15.01	2.07763e-09
3	44748	15.11	1.89999e-09
3	45069	15.21	1.72236e-09
3	45390	15.31	1.54472e-09
3	45711	15.41	1.37064e-09
3	46032	15.51	1.20295e-09
3	46353	15.61	1.04379e-09
3	46674	15.71	8.94573e-10
3	46995	15.81	7.56017e-10
3	47316	15.91	6.29541e-10
3	47643	16.01	5.13012e-10
3	47964	16.11	4.09273e-10
3	48285	16.21	3.16902e-10
3	48606	16.31	2.3519e-10
3	48927	16.41	1.63425e-10
3	49248	16.51	1.02318e-10
3	49569	16.61	4.9738e-11
3	49890	16.71	5.68434e-12
3	50211	16.81	-3.05533e-11
3	50532	16.91	-5.8975e-11
3	50859	17.01	-8.10019e-11
3	51180	17.11	-9.80549e-11
3	51501	17.21	-1.11555e-10
3	51822	17.31	-1.18661e-10
3	52143	17.41	-1.23634e-10
3	52464	17.51	-1.23634e-10
3	52785	17.61	-1.23634e-10
3	53106	17.71	-1.21503e-10
3	53427	17.81	-1.14397e-10
3	53748	17.91	-1.07292e-10
3	54075	18.01	-1.00187e-10
3	54396	18.11	-9.30811e-11
3	54717	18.21	-8.59757e-11
3	55038	18.31	-7.88702e-11
3	55359	18.41	-7.17648e-11
3	55680	18.51	-6.46594e-11
3	56001	18.61	-5.7554e-11
3	56322	18.71	-5.04485e-11
3	56643	18.81	-4.33431e-11
3	56964	18.91	-3.62377e-11
3	57291	19.01	-2.91323e-11
3	57612	19.11	-2.20268e-11
3	57933	19.21	-1.7053e-11
3	58254	19.31	-1.49214e-11
3	58575	19.41	-1.35003e-11
3	58896	19.51	-1.27898e-11
3	59217	19.61	-1.13687e-11
3	59538	19.71	-9.9476e-12
3	59859	19.81	-9.23706e-12
3	60180	19.91	-8.52651e-12
3	60507	20.01	-7.81597e-12
3	60828	20.11	-7.10543e-12
3	61149	20.21	-6.39488e-12
3	61470	20.31	-5.68434e-12
3	61791	20.41	-4.9738e-12
3	62112	20.51	-4.26326e-12
3	62433	20.61	-4.26326e-12
3	62754	20.71	-3.55271e-12
3	63075	20.81	-3.55271e-12
3	63396	20.91	-2.84217e-12
3	63723	21.01	-2.84217e-12
3	64044	21.11	-2.84217e-12
3	64365	21.21	-2.13163e-12
3	64686	21.31	-2.13163e-12
3	65007	21.41	-2.13163e-12
3	65328	21.51	-1.42109e-12
3	65649	21.61	-1.42109e-12
3	65970	21.71	-1.42109e-12
3	66291	21.81	-1.42109e-12
3	66612	21.91	-1.42109e-12
3	66939	22.01	-7.10543e-13
3	67260	22.11	-7.10543e-13
3	67581	22.21	-7.10543e-13
3	67902	22.31	-7.10543e-13
3	68223	22.41	-7.10543e-13
3	68544	22.51	-7.10543e-13
3	68865	22.61	-7.10543e-13
3	69186	22.71	-7.10543e-13
3	69507	22.81	-7.10543e-13
3	69828	22.91	-7.10543e-13
3	70155	23.01	0
3	70476	23.11	0
3	70797	23.21	0
3	71118	23.31	0
3	71439	23.41	0
3	71760	23.51	0
3	72081	23.61	0
3	72402	23.71	0
3	72723	23.81	0
3	73044	23.91	0
3	73371	24.01	0
3	73692	24.11	0
3	74013	24.21	0
3	74334	24.31	0
3	74655	24.41	0
3	74976	24.51	0
3	75297	24.61	0
3	75618	24.71	0
3	75939	24.81	0
3	76260	24.91	0
3	76587	25.01	0
3	76908	25.11	0
3	77229	25.21	0
3	77550	25.31	0
3	77871	25.41	0
3	78192	25.51	0
3	78513	25.61	0
3	78834	25.71	0
3	79155	25.81	0
3	79476	25.91	0
3	79803	26.01	0
3	80124	26.11	0
3	80445	26.21	0
3	80766	26.31	0
3	81087	26.41	0
3	81408	26.51	0
3	81729	26.61	0
3	82050	26.71	0
3	82371	26.81	0
3	82692	26.91	0
3	83019	27.01	0
3	83340	27.11	0
3	83661	27.21	0
3	83982	27.31	0
3	84303	27.41	0
3	84624	27.51	0
3	84945	27.61	0
3	85266	27.71	0
3	85587	27.81	0
3	85908	27.91	0
3	86235	28.01	0
3	86556	28.11	0
3	86877	28.21	0
3	87198	28.31	0
3	87519	28.41	0
3	87840	28.51	0
3	88161	28.61	0
3	88482	28.71	0
3	88803	28.81	0
3	89124	28.91	0
3	89451	29.01	0
3	89772	29.11	0
3	90093	29.21	0
3	90414	29.31	0
3	90735	29.41	0
3	91056	29.51	0
3	91377	29.61	0
3	91698	29.71	0
3	92019	29.81	0
3	92340	29.91	0
3	92667	30.01	0
3	92988	30.11	0
3	93309	30.21	0
3	93630	30.31	0
3	93951	30.41	0
3	94272	30.51	0
3	94593	30.61	0
3	94914	30.71	0
3	95235	30.81	0
3	95556	30.91	0
3	95883	31.01	0
3	96204	31.11	0
3	96525	31.21	0
3	96846	31.31	0
3	97167	31.41	0
3	97488	31.51	0
3	97809	31.61	0
3	98130	31.71	0
3	98451	31.81	0
3	98772	31.91	0
3	99099	32.01	0
3	99420	32.11	0
3	99741	32.21	0
3	100062	32.31	0
3	100383	32.41	0
3	100704	32.51	0
3	101025	32.61	0
3	101346	32.71	0
3	101667	32.81	0
3	101988	32.91	0
3	102315	33.01	0
3	102636	33.11	0
3	102957	33.21	0
3	103278	33.31	0
3	103599	33.41	0
3	103920	33.51	0
3	104241	33.61	0
3	104562	33.71	0
3	104883	33.81	0
3	105204	33.91	0
3	105531	34.01	0
3	105852	34.11	0
3	106173	34.21	0
3	106494	34.31	0
3	106815	34.41	0
3	107136	34.51	0
3	107457	34.61	0
3	107778	34.71	0
3	108099	34.81	0
3	108420	34.91	0
3	108747	35.01	0
3	109068	35.11	0
3	109389	35.21	0
3	109710	35.31	0
3	110031	35.41	0
3	110352	35.51	0
3	110673	35.61	0
3	110994	35.71	0
3	111315	35.81	0
3	111636	35.91	0
3	111963	36.01	0
3	112284	36.11	0
3	112605	36.21	0
3	112926	36.31	0
3	113247	36.41	0
3	113568	36.51	0
3	113889	36.61	0
3	114210	36.71	0
3	114531	36.81	0
3	114852	36.91	0
3	115179	37.01	0
3	115500	37.11	0
3	115821	37.21	0
3	116142	37.31	0
3	116463	37.41	0
3	116784	37.51	0
3	117105	37.61	0
3	117426	37.71	0
3	117747	37.81	0
3	118068	37.91	0
3	118395	38.01	0
3	118716	38.11	0
3	119037	38.21	0
3	119358	38.31	0
3	119679	38.41	0
3	120000	38.51	0
3	120321	38.61	0
3	120642	38.71	0
3	120963	38.81	0
3	121284	38.91	0
3	121611	39.01	0
3	121932	39.11	0
3	122253	39.21	0
3	122574	39.31	0
3	122895	39.41	0
3	123216	39.51	0
3	123537	39.61	0
3	123858	39.71	0
3	124179	39.81	0
3	124500	39.91	0
3	124827	40.01	0
3	125148	40.11	0
3	125469	40.21	0
3	125790	40.31	0
3	126111	40.41	0
3	126432	40.51	0
3	126753	40.61	0
3	127074	40.71	0
3	127395	40.81	0
3	127716	40.91	0
3	128043	41.01	0
3	128364	41.11	0
3	128685	41.21	0
3	129006	41.31	0
3	129327	41.41	0
3	129648	41.51	0
3	129969	41.61	0
3	130290	41.71	0
3	130611	41.81	0
3	130932	41.91	0
3	131259	42.01	0
3	131580	42.11	0
3	131901	42.21	0
3	132222	42.31	0
3	132543	42.41	0
3	132864	42.51	0
3	133185	42.61	0
3	133579	42.71	0
3	133899	42.81	0
3	134219	42.91	0
3	134545	43.01	0
3	134865	43.11	0
3	135185	43.21	0
3	135505	43.31	0
3	135825	43.41	0
3	136145	43.51	0
3	136465	43.61	0
3	136785	43.71	0
3	137105	43.81	0
3	137425	43.91	0
3	137751	44.01	0
3	138071	44.11	0
3	138391	44.21	0
3	138711	44.31	0
3	139031	44.41	0
3	139351	44.51	0
3	139671	44.61	0
3	139991	44.71	0
3	140311	44.81	0
3	140631	44.91	0
3	140957	45.01	0
3	141277	45.11	0
3	141597	45.21	0
3	141917	45.31	0
3	142237	45.41	0
3	142557	45.51	0
3	142877	45.61	0
3	143197	45.71	0
3	143517	45.81	0
3	143837	45.91	0
3	144163	46.01	0
3	144483	46.11	0
3	144803	46.21	0
3	145123	46.31	0
3	145443	46.41	0
3	145763	46.51	0
3	146083	46.61	0
3	146403	46.71	0
3	146723	46.81	0
3	147043	46.91	0
3	147369	47.01	0
3	147689	47.11	0
3	148009	47.21	0
3	148329	47.31	0
3	148649	47.41	0
3	148969	47.51	0
3	149289	47.61	0
3	149609	47.71	0
3	149929	47.81	0
3	150249	47.91	0
3	150575	48.01	0
3	150895	48.11	0
3	151215	48.21	0
3	151535	48.31	0
3	151855	48.41	0
3	152248	48.51	0
3	152567	48.61	0
3	152886	48.71	0
3	153205	48.81	0
3	153524	48.91	0
3	153849	49.01	0
3	154168	49.11	0
3	154487	49.21	0
3	154806	49.31	0
3	155125	49.41	0
3	155444	49.51	0
3	155763	49.61	0
3	156082	49.71	0
3	156401	49.81	0
3	156720	49.91	0
3	157045	50.01	0
3	157364	50.11	0
3	157683	50.21	0
3	158002	50.31	0
3	158321	50.41	0
3	158640	50.51	0
3	158959	50.61	0
3	159278	50.71	0
3	159597	50.81	0
3	159916	50.91	0
3	160241	51.01	0
3	160560	51.11	0
3	160879	51.21	0
3	161198	51.31	0
3	161517	51.41	0
3	161836	51.51	0
3	162155	51.61	0
3	162474	51.71	0
3	162793	51.81	0
3	163112	51.91	0
3	163437	52.01	0
3	163756	52.11	0
3	164075	52.21	0
3	164394	52.31	0
3	164713	52.41	0
3	165032	52.51	0
3	165351	52.61	0
3	165670	52.71	0
3	165989	52.81	0
3	166308	52.91	0
3	166633	53.01	0
3	166952	53.11	0
3	167271	53.21	0
3	167590	53.31	0
3	167909	53.41	0
3	168228	53.51	0
3	168547	53.61	0
3	168866	53.71	0
3	169258	53.81	0
3	169576	53.91	0
3	169900	54.01	0
3	170218	54.11	0
3	170536	54.21	0
3	170854	54.31	0
3	171172	54.41	0
3	171490	54.51	0
3	171808	54.61	0
3	172126	54.71	0
3	172444	54.81	0
3	172762	54.91	0
3	173086	55.01	0
3	173404	55.11	0
3	173722	55.21	0
3	174040	55.31	0
3	174358	55.41	0
3	174676	55.51	0
3	174994	55.61	0
3	175312	55.71	0
3	175630	55.81	0
3	175948	55.91	0
3	176272	56.01	0
3	176590	56.11	0
3	176908	56.21	0
3	177226	56.31	0
3	177544	56.41	0
3	177862	56.51	0
3	178180	56.61	0
3	178498	56.71	0
3	178816	56.81	0
3	179134	56.91	0
3	179458	57.01	0
3	179776	57.11	0
3	180094	57.21	0
3	180412	57.31	0
3	180730	57.41	0
3	181048	57.51	0
3	181366	57.61	0
3	181684	57.71	0
3	182002	57.81	0
3	182320	57.91	0
3	182644	58.01	0
3	182962	58.11	0
3	183280	58.21	0
3	183598	58.31	0
3	183916	58.41	0
3	184234	58.51	0
3	184625	58.61	0
3	184942	58.71	0
3	185259	58.81	0
3	185576	58.91	0
3	185899	59.01	0
3	186216	59.11	0
3	186533	59.21	0
3	186850	59.31	0
3	187167	59.41	0
3	187484	59.51	0
3	187801	59.61	0
3	188118	59.71	0
3	188435	59.81	0
3	188752	59.91	0
3	189075	60.01	0
3	189392	60.11	0
3	189709	60.21	0
3	190026	60.31	0
3	190343	60.41	0
3	190660	60.51	0
3	190977	60.61	0
3	191294	60.71	0
3	191611	60.81	0
3	191928	60.91	0
3	192251	61.01	0
3	192568	61.11	0
3	192885	61.21	0
3	193202	61.31	0
3	193519	61.41	0
3	193836	61.51	0
3	194153	61.61	0
3	194470	61.71	0
3	194787	61.81	0
3	195104	61.91	0
3	195427	62.01	0
3	195744	62.11	0
3	196061	62.21	0
3	196378	62.31	0
3	196695	62.41	0
3	197012	62.51	0
3	197329	62.61	0
3	197646	62.71	0
3	197963	62.81	0
3	198280	62.91	0
3	198603	63.01	0
3	198920	63.11	0
3	199237	63.21	0
3	199992	63.31	0
3	200308	63.41	0
3	200624	63.51	0
3	200940	63.61	0
3	201256	63.71	0
3	201572	63.81	0
3	201888	63.91	0
3	202210	64.01	0
3	202526	64.11	0
3	202842	64.21	0
3	203158	64.31	0
3	203474	64.41	0
3	203790	64.51	0
3	204106	64.61	0
3	204422	64.71	0
3	204738	64.81	0
3	205054	64.91	0
3	205376	65.01	0
3	205692	65.11	0
3	206008	65.21	0
3	206324	65.31	0
3	206640	65.41	0
3	206956	65.51	0
3	207272	65.61	0
3	207588	65.71	0
3	207904	65.81	0
3	208220	65.91	0
3	208542	66.01	0
3	208858	66.11	0
3	209174	66.21	0
3	209490	66.31	0
3	209806	66.41	0
3	210122	66.51	0
3	210438	66.61	0
3	210754	66.71	0
3	211070	66.81	0
3	211386	66.91	0
3	211708	67.01	0
3	212024	67.11	0
3	212340	67.21	0
3	212656	67.31	0
3	212972	67.41	0
3	213288	67.51	0
3	213604	67.61	0
3	213920	67.71	0
3	214236	67.81	0
3	214552	67.91	0
3	214874	68.01	0
3	215190	68.11	0
3	215506	68.21	0
3	215822	68.31	0
3	216138	68.41	0
3	216454	68.51	0
3	216770	68.61	0
3	217086	68.71	0
3	217402	68.81	0
3	217718	68.91	0
3	218040	69.01	0
3	218356	69.11	0
3	218672	69.21	0
3	218988	69.31	0
3	219304	69.41	0
3	219620	69.51	0
3	219936	69.61	0
3	220252	69.71	0
3	220568	69.81	0
3	220884	69.91	0
3	221206	70.01	0
3	221522	70.11	0
3	221838	70.21	0
3	222154	70.31	0
3	222470	70.41	0
3	222786	70.51	0
3	223102	70.61	0
3	223418	70.71	0
3	223734	70.81	0
3	224050	70.91	0
3	224372	71.01	0
3	224688	71.11	0
3	225004	71.21	0
3	225320	71.31	0
3	225636	71.41	0
3	225952	71.51	0
3	226268	71.61	0
3	226584	71.71	0
3	226900	71.81	0
3	227216	71.91	0
3	227538	72.01	0
3	227854	72.11	0
3	228170	72.21	0
3	228486	72.31	0
3	228802	72.41	0
3	229118	72.51	0
3	229434	72.61	0
3	229750	72.71	0
3	230066	72.81	0
3	230382	72.91	0
3	230704	73.01	0
3	231020	73.11	0
3	231336	73.21	0
3	231652	73.31	0
3	231968	73.41	0
3	232284	73.51	0
3	232600	73.61	0
3	232916	73.71	0
3	233232	73.81	0
3	233548	73.91	0
3	233870	74.01	0
3	234186	74.11	0
3	234502	74.21	0
3	234818	74.31	0
3	235134	74.41	0
3	235450	74.51	0
3	235766	74.61	0
3	236082	74.71	0
3	236398	74.81	0
3	236714	74.91	0
3	237036	75.01	0
3	237352	75.11	0
3	237668	75.21	0
3	237984	75.31	0
3	238300	75.41	0
3	238616	75.51	0
3	238932	75.61	0
3	239248	75.71	0
3	239564	75.81	0
3	239880	75.91	0
3	240202	76.01	0
3	240518	76.11	0
3	240834	76.21	0
3	241150	76.31	0
3	241466	76.41	0
3	241782	76.51	0
3	242098	76.61	0
3	242414	76.71	0
3	242730	76.81	0
3	243046	76.91	0
3	243368	77.01	0
3	243684	77.11	0
3	244000	77.21	0
3	244316	77.31	0
3	244632	77.41	0
3	244948	77.51	0
3	245264	77.61	0
3	245580	77.71	0
3	245896	77.81	0
3	246212	77.91	0
3	246534	78.01	0
3	246850	78.11	0
3	247166	78.21	0
3	247482	78.31	0
3	247798	78.41	0
3	248114	78.51	0
3	248430	78.61	0
3	248746	78.71	0
3	249062	78.81	0
3	249378	78.91	0
3	249700	79.01	0
3	250016	79.11	0
3	250332	79.21	0
3	250648	79.31	0
3	250964	79.41	0
3	251280	79.51	0
3	251596	79.61	0
3	251912	79.71	0
3	252228	79.81	0
3	252544	79.91	0
3	252866	80.01	0
3	253182	80.11	0
3	253498	80.21	0
3	253814	80.31	0
3	254130	80.41	0
3	254446	80.51	0
3	254762	80.61	0
3	255078	80.71	0
3	255394	80.81	0
3	255710	80.91	0
3	256032	81.01	0
3	256348	81.11	0
3	256664	81.21	0
3	256980	81.31	0
3	257296	81.41	0
3	257612	81.51	0
3	257928	81.61	0
3	258244	81.71	0
3	258560	81.81	0
3	258876	81.91	0
3	259198	82.01	0
3	259514	82.11	0
3	259830	82.21	0
3	260146	82.31	0
3	260462	82.41	0
3	260778	82.51	0
3	261094	82.61	0
3	261410	82.71	0
3	261726	82.81	0
3	262042	82.91	0
3	262364	83.01	0
3	262680	83.11	0
3	262996	83.21	0
3	263312	83.31	0
3	263628	83.41	0
3	263944	83.51	0
3	264260	83.61	0
3	264576	83.71	0
3	264892	83.81	0
3	265208	83.91	0
3	265530	84.01	0
3	265846	84.11	0
3	266162	84.21	0
3	266478	84.31	0
3	266794	84.41	0
3	267110	84.51	0
3	267426	84.61	0
3	267742	84.71	0
3	268058	84.81	0
3	268374	84.91	0
3	268696	85.01	0
3	269012	85.11	0
3	269328	85.21	0
3	269644	85.31	0
3	269960	85.41	0
3	270276	85.51	0
3	270592	85.61	0
3	270908	85.71	0
3	271224	85.81	0
3	271540	85.91	0
3	271862	86.01	0
3	272178	86.11	0
3	272494	86.21	0
3	272810	86.31	0
3	273126	86.41	0
3	273442	86.51	0
3	273758	86.61	0
3	274074	86.71	0
3	274390	86.81	0
3	274706	86.91	0
3	275028	87.01	0
3	275344	87.11	0
3	275660	87.21	0
3	275976	87.31	0
3	276292	87.41	0
3	276608	87.51	0
3	276924	87.61	0
3	277240	87.71	0
3	277556	87.81	0
3	277872	87.91	0
3	278194	88.01	0
3	278510	88.11	0
3	278826	88.21	0
3	279142	88.31	0
3	279458	88.41	0
3	279774	88.51	0
3	280090	88.61	0
3	280406	88.71	0
3	280722	88.81	0
3	281038	88.91	0
3	281360	89.01	0
3	281676	89.11	0
3	281992	89.21	0
3	282308	89.31	0
3	282624	89.41	0
3	282940	89.51	0
3	283256	89.61	0
3	283572	89.71	0
3	283888	89.81	0
3	284204	89.91	0
3	284526	90.01	0
3	284842	90.11	0
3	285158	90.21	0
3	285474	90.31	0
3	285790	90.41	0
3	286106	90.51	0
3	286422	90.61	0
3	286738	90.71	0
3	287054	90.81	0
3	287370	90.91	0
3	287692	91.01	0
3	288008	91.11	0
3	288324	91.21	0
3	288640	91.31	0
3	288956	91.41	0
3	289272	91.51	0
3	289588	91.61	0
3	289904	91.71	0
3	290220	91.81	0
3	290536	91.91	0
3	290858	92.01	0
3	291174	92.11	0
3	291490	92.21	0
3	291806	92.31	0
3	292122	92.41	0
3	292438	92.51	0
3	292754	92.61	0
3	293070	92.71	0
3	293386	92.81	0
3	293702	92.91	0
3	294024	93.01	0
3	294340	93.11	0
3	294656	93.21	0
3	294972	93.31	0
3	295288	93.41	0
3	295604	93.51	0
3	295920	93.61	0
3	296236	93.71	0
3	296552	93.81	0
3	296868	93.91	0
3	297190	94.01	0
3	297506	94.11	0
3	297822	94.21	0
3	298138	94.31	0
3	298454	94.41	0
3	298770	94.51	0
3	299086	94.61	0
3	299402	94.71	0
3	299718	94.81	0
3	300034	94.91	0
3	300356	95.01	0
3	300672	95.11	0
3	300988	95.21	0
3	301304	95.31	0
3	301620	95.41	0
3	301936	95.51	0
3	302252	95.61	0
3	302568	95.71	0
3	302884	95.81	0
3	303200	95.91	0
3	303522	96.01	0
3	303838	96.11	0
3	304154	96.21	0
3	304470	96.31	0
3	304786	96.41	0
3	305102	96.51	0
3	305418	96.61	0
3	305734	96.71	0
3	306050	96.81	0
3	306366	96.91	0
3	306688	97.01	0
3	307004	97.11	0
3	307320	97.21	0
3	307636	97.31	0
3	307952	97.41	0
3	308268	97.51	0
3	308584	97.61	0
3	308900	97.71	0
3	309216	97.81	0
3	309532	97.91	0
3	309854	98.01	0
3	310170	98.11	0
3	310486	98.21	0
3	310802	98.31	0
3	311118	98.41	0
3	311434	98.51	0
3	311750	98.61	0
3	312066	98.71	0
3	312382	98.81	0
3	312698	98.91	0
3	313020	99.01	0
3	313336	99.11	0
3	313652	99.21	0
3	313968	99.31	0
3	314284	99.41	0
3	314600	99.51	0
3	314916	99.61	0
3	315232	99.71	0
3	315548	99.81	0
3	315864	99.91	0
4	113	1.11	0.00109259
4	429	1.21	0.00106709
4	745	1.31	0.00102704
4	1061	1.41	0.000975759
4	1377	1.51	0.00091619
4	1693	1.61	0.000850891
4	2009	1.71	0.000782061
4	2325	1.81	0.00071157
4	2641	1.91	0.00064098
4	2963	2.01	0.000571575
4	3279	2.11	0.000504387
4	3595	2.21	0.000440223
4	3911	2.31	0.000379691
4	4227	2.41	0.000323223
4	4543	2.51	0.000271102
4	4859	2.61	0.000223482
4	5175	2.71	0.000180409
4	5491	2.81	0.000141839
4	5807	2.91	0.000107653
4	6129	3.01	7.76787e-05
4	6445	3.11	5.16957e-05
4	6761	3.21	2.94534e-05
4	7077	3.31	1.06787e-05
4	7393	3.41	-4.91459e-06
4	7709	3.51	-1.76184e-05
4	8025	3.61	-2.7724e-05
4	8341	3.71	-3.55168e-05
4	8657	3.81	-4.12726e-05
4	8973	3.91	-4.52541e-05
4	9295	4.01	-4.77086e-05
4	9611	4.11	-4.88665e-05
4	9927	4.21	-4.89399e-05
4	10243	4.31	-4.81224e-05
4	10559	4.41	-4.65886e-05
4	10875	4.51	-4.44947e-05
4	11191	4.61	-4.1979e-05
4	11507	4.71	-3.91623e-05
4	11823	4.81	-3.61492e-05
4	12139	4.91	-3.3029e-05
4	12461	5.01	-2.9877e-05
4	12777	5.11	-2.67554e-05
4	13093	5.21	-2.37147e-05
4	13409	5.31	-2.07949e-05
4	13725	5.41	-1.80267e-05
4	14041	5.51	-1.54325e-05
4	14357	5.61	-1.30275e-05
4	14673	5.71	-1.0821e-05
4	14989	5.81	-8.81673e-06
4	15305	5.91	-7.01443e-06
4	15627	6.01	-5.4101e-06
4	15943	6.11	-3.99696e-06
4	16259	6.21	-2.766e-06
4	16575	6.31	-1.70658e-06
4	16891	6.41	-8.06872e-07
4	17207	6.51	-5.43281e-08
4	17523	6.61	5.63994e-07
[...]
73	268640	85	0
73	271806	86	0
73	274972	87	0
73	278138	88	0
73	281304	89	0
73	284470	90	0
73	287636	91	0
73	290802	92	0
73	293968	93	0
73	297134	94	0
73	300300	95	0
73	303466	96	0
73	306632	97	0
73	309798	98	0
73	312964	99	0
73	316130	100	0
74	2908	2	2
74	6074	3	2
74	9240	4	2
74	12406	5	2
74	15572	6	2
74	18738	7	2
74	21904	8	2
74	25070	9	2
74	28237	10	2
74	31503	11	2
74	34719	12	2
74	37935	13	2
74	41151	14	2
74	44367	15	2
74	47583	16	2
74	50799	17	2
74	54015	18	2
74	57231	19	2
74	60447	20	2
74	63663	21	2
74	66879	22	2
74	70095	23	2
74	73311	24	2
74	76527	25	2
74	79743	26	2
74	82959	27	2
74	86175	28	2
74	89391	29	2
74	92607	30	2
74	95823	31	2
74	99039	32	2
74	102255	33	2
74	105471	34	2
74	108687	35	2
74	111903	36	2
74	115119	37	2
74	118335	38	2
74	121551	39	2
74	124767	40	2
74	127983	41	2
74	131199	42	2
74	134486	43	2
74	137692	44	2
74	140898	45	2
74	144104	46	2
74	147310	47	2
74	150516	48	2
74	153791	49	2
74	156987	50	2
74	160183	51	2
74	163379	52	2
74	166575	53	2
74	169843	54	2
74	173029	55	2
74	176215	56	2
74	179401	57	2
74	182587	58	2
74	185843	59	2
74	189019	60	2
74	192195	61	2
74	195371	62	2
74	198547	63	2
74	202155	64	2
74	205321	65	2
74	208487	66	2
74	211653	67	2
74	214819	68	2
74	217985	69	2
74	221151	70	2
74	224317	71	2
74	227483	72	2
74	230649	73	2
74	233815	74	2
74	236981	75	2
74	240147	76	2
74	243313	77	2
74	246479	78	2
74	249645	79	2
74	252811	80	2
74	255977	81	2
74	259143	82	2
74	262309	83	2
74	265475	84	2
74	268641	85	2
74	271807	86	2
74	274973	87	2
74	278139	88	2
74	281305	89	2
74	284471	90	2
74	287637	91	2
74	290803	92	2
74	293969	93	2
74	297135	94	2
74	300301	95	2
74	303467	96	2
74	306633	97	2
74	309799	98	2
74	312965	99	2
74	316131	100	2
75	2908	2	0.016544
75	6074	3	0.01873
75	9240	4	0.01873
75	12406	5	0.01873
75	15572	6	0.01873
75	18738	7	0.01873
75	21904	8	0.01873
75	25070	9	0.01873
75	28237	10	0.01873
75	31503	11	0.018778
75	34719	12	0.01873
75	37935	13	0.01873
75	41151	14	0.01873
75	44367	15	0.01873
75	47583	16	0.01873
75	50799	17	0.01873
75	54015	18	0.01873
75	57231	19	0.01873
75	60447	20	0.01873
75	63663	21	0.01873
75	66879	22	0.01873
75	70095	23	0.01873
75	73311	24	0.01873
75	76527	25	0.01873
75	79743	26	0.01873
75	82959	27	0.01873
75	86175	28	0.01873
75	89391	29	0.01873
75	92607	30	0.01873
75	95823	31	0.01873
75	99039	32	0.01873
75	102255	33	0.01873
75	105471	34	0.01873
75	108687	35	0.01873
75	111903	36	0.01873
75	115119	37	0.01873
75	118335	38	0.01873
75	121551	39	0.01873
75	124767	40	0.01873
75	127983	41	0.01873
75	131199	42	0.01873
75	134486	43	0.018842
75	137692	44	0.01873
75	140898	45	0.01873
75	144104	46	0.01873
75	147310	47	0.01873
75	150516	48	0.01873
75	153791	49	0.018875185864
75	156987	50	0.01873
75	160183	51	0.01873
75	163379	52	0.01873
75	166575	53	0.01873
75	169843	54	0.018842
75	173029	55	0.01873
75	176215	56	0.01873
75	179401	57	0.01873
75	182587	58	0.01873
75	185843	59	0.018842
75	189019	60	0.01873
75	192195	61	0.01873
75	195371	62	0.01873
75	198547	63	0.01873
75	202155	64	0.019434
75	205321	65	0.01873
75	208487	66	0.01873
75	211653	67	0.01873
75	214819	68	0.01873
75	217985	69	0.01873
75	221151	70	0.01873
75	224317	71	0.01873
75	227483	72	0.01873
75	230649	73	0.01873
75	233815	74	0.01873
75	236981	75	0.01873
75	240147	76	0.01873
75	243313	77	0.01873
75	246479	78	0.01873
75	249645	79	0.01873
75	252811	80	0.01873
75	255977	81	0.01873
75	259143	82	0.01873
75	262309	83	0.01873
75	265475	84	0.01873
75	268641	85	0.01873
75	271807	86	0.01873
75	274973	87	0.01873
75	278139	88	0.01873
75	281305	89	0.01873
75	284471	90	0.01873
75	287637	91	0.01873
75	290803	92	0.01873
75	293969	93	0.01873
75	297135	94	0.01873
75	300301	95	0.01873
75	303467	96	0.01873
75	306633	97	0.01873
75	309799	98	0.01873
75	312965	99	0.01873
75	316131	100	0.01873
76	2908	2	0
76	6074	3	0
76	9240	4	0
76	12406	5	0
76	15572	6	0
76	18738	7	0
76	21904	8	0
76	25070	9	0
76	28237	10	0
76	31503	11	0
76	34719	12	0
76	37935	13	0
76	41151	14	0
76	44367	15	0
76	47583	16	0
76	50799	17	0
76	54015	18	0
76	57231	19	0
76	60447	20	0
76	63663	21	0
76	66879	22	0
76	70095	23	0
76	73311	24	0
76	76527	25	0
76	79743	26	0
76	82959	27	0
76	86175	28	0
76	89391	29	0
76	92607	30	0
76	95823	31	0
76	99039	32	0
76	102255	33	0
76	105471	34	0
76	108687	35	0
76	111903	36	0
76	115119	37	0
76	118335	38	0
76	121551	39	0
76	124767	40	0
76	127983	41	0
76	131199	42	0
76	134486	43	0
76	137692	44	0
76	140898	45	0
76	144104	46	0
76	147310	47	0
76	150516	48	0
76	153791	49	0
76	156987	50	0
76	160183	51	0
76	163379	52	0
76	166575	53	0
76	169843	54	0
76	173029	55	0
76	176215	56	0
76	179401	57	0
76	182587	58	0
76	185843	59	0
76	189019	60	0
76	192195	61	0
76	195371	62	0
76	198547	63	0
76	202155	64	0
76	205321	65	0
76	208487	66	0
76	211653	67	0
76	214819	68	0
76	217985	69	0
76	221151	70	0
76	224317	71	0
76	227483	72	0
76	230649	73	0
76	233815	74	0
76	236981	75	0
76	240147	76	0
76	243313	77	0
76	246479	78	0
76	249645	79	0
76	252811	80	0
76	255977	81	0
76	259143	82	0
76	262309	83	0
76	265475	84	0
76	268641	85	0
76	271807	86	0
76	274973	87	0
76	278139	88	0
76	281305	89	0
76	284471	90	0
76	287637	91	0
76	290803	92	0
76	293969	93	0
76	297135	94	0
76	300301	95	0
76	303467	96	0
76	306633	97	0
76	309799	98	0
76	312965	99	0
76	316131	100	0
77	2909	2	3
77	6075	3	3
77	9241	4	3
77	12407	5	3
77	15573	6	3
77	18739	7	3
77	21905	8	3
77	25071	9	3
77	28238	10	3
77	31504	11	3
77	34720	12	3
77	37936	13	3
77	41152	14	3
77	44368	15	3
77	47584	16	3
77	50800	17	3
77	54016	18	3
77	57232	19	3
77	60448	20	3
77	63664	21	3
77	66880	22	3
77	70096	23	3
77	73312	24	3
77	76528	25	3
77	79744	26	3
77	82960	27	3
77	86176	28	3
77	89392	29	3
77	92608	30	3
77	95824	31	3
77	99040	32	3
77	102256	33	3
77	105472	34	3
77	108688	35	3
77	111904	36	3
77	115120	37	3
77	118336	38	3
77	121552	39	3
77	124768	40	3
77	127984	41	3
77	131200	42	3
77	134487	43	3
77	137693	44	3
77	140899	45	3
77	144105	46	3
77	147311	47	3
77	150517	48	3
77	153792	49	3
77	156988	50	3
77	160184	51	3
77	163380	52	3
77	166576	53	3
77	169844	54	3
77	173030	55	3
77	176216	56	3
77	179402	57	3
77	182588	58	3
77	185844	59	3
77	189020	60	3
77	192196	61	3
77	195372	62	3
77	198548	63	3
77	202156	64	3
77	205322	65	3
77	208488	66	3
77	211654	67	3
77	214820	68	3
77	217986	69	3
77	221152	70	3
77	224318	71	3
77	227484	72	3
77	230650	73	3
77	233816	74	3
77	236982	75	3
77	240148	76	3
77	243314	77	3
77	246480	78	3
77	249646	79	3
77	252812	80	3
77	255978	81	3
77	259144	82	3
77	262310	83	3
77	265476	84	3
77	268642	85	3
77	271808	86	3
77	274974	87	3
77	278140	88	3
77	281306	89	3
77	284472	90	3
77	287638	91	3
77	290804	92	3
77	293970	93	3
77	297136	94	3
77	300302	95	3
77	303468	96	3
77	306634	97	3
77	309800	98	3
77	312966	99	3
77	316132	100	3
78	2909	2	0.016545
78	6075	3	0.01873
78	9241	4	0.01873
78	12407	5	0.01873
78	15573	6	0.01873
78	18739	7	0.01873
78	21905	8	0.01873
78	25071	9	0.01873
78	28238	10	0.01873
78	31504	11	0.018778
78	34720	12	0.01873
78	37936	13	0.01873
78	41152	14	0.01873
78	44368	15	0.01873
78	47584	16	0.01873
78	50800	17	0.01873
78	54016	18	0.01873
78	57232	19	0.01873
78	60448	20	0.01873
78	63664	21	0.01873
78	66880	22	0.01873
78	70096	23	0.01873
78	73312	24	0.01873
78	76528	25	0.01873
78	79744	26	0.01873
78	82960	27	0.01873
78	86176	28	0.01873
78	89392	29	0.01873
78	92608	30	0.01873
78	95824	31	0.01873
78	99040	32	0.01873
78	102256	33	0.01873
78	105472	34	0.01873
78	108688	35	0.01873
78	111904	36	0.01873
78	115120	37	0.01873
78	118336	38	0.01873
78	121552	39	0.01873
78	124768	40	0.01873
78	127984	41	0.01873
78	131200	42	0.01873
78	134487	43	0.018842
78	137693	44	0.01873
78	140899	45	0.01873
78	144105	46	0.01873
78	147311	47	0.01873
78	150517	48	0.01873
78	153792	49	0.018842
78	156988	50	0.01873
78	160184	51	0.01873
78	163380	52	0.01873
78	166576	53	0.01873
78	169844	54	0.018875279106
78	173030	55	0.01873
78	176216	56	0.01873
78	179402	57	0.01873
78	182588	58	0.01873
78	185844	59	0.018842
78	189020	60	0.01873
78	192196	61	0.01873
78	195372	62	0.01873
78	198548	63	0.01873
78	202156	64	0.019434
78	205322	65	0.01873
78	208488	66	0.01873
78	211654	67	0.01873
78	214820	68	0.01873
78	217986	69	0.01873
78	221152	70	0.01873
78	224318	71	0.01873
78	227484	72	0.01873
78	230650	73	0.01873
78	233816	74	0.01873
78	236982	75	0.01873
78	240148	76	0.01873
78	243314	77	0.01873
78	246480	78	0.01873
78	249646	79	0.01873
78	252812	80	0.01873
78	255978	81	0.01873
78	259144	82	0.01873
78	262310	83	0.01873
78	265476	84	0.01873
78	268642	85	0.01873
78	271808	86	0.01873
78	274974	87	0.01873
78	278140	88	0.01873
78	281306	89	0.01873
78	284472	90	0.01873
78	287638	91	0.01873
78	290804	92	0.01873
78	293970	93	0.01873
78	297136	94	0.01873
78	300302	95	0.01873
78	303468	96	0.01873
78	306634	97	0.01873
78	309800	98	0.01873
78	312966	99	0.01873
78	316132	100	0.01873
79	2909	2	0
79	6075	3	0
79	9241	4	0
79	12407	5	0
79	15573	6	0
79	18739	7	0
79	21905	8	0
79	25071	9	0
79	28238	10	0
79	31504	11	0
79	34720	12	0
79	37936	13	0
79	41152	14	0
79	44368	15	0
79	47584	16	0
79	50800	17	0
79	54016	18	0
79	57232	19	0
79	60448	20	0
79	63664	21	0
79	66880	22	0
79	70096	23	0
79	73312	24	0
79	76528	25	0
79	79744	26	0
79	82960	27	0
79	86176	28	0
79	89392	29	0
79	92608	30	0
79	95824	31	0
79	99040	32	0
79	102256	33	0
79	105472	34	0
79	108688	35	0
79	111904	36	0
79	115120	37	0
79	118336	38	0
79	121552	39	0
79	124768	40	0
79	127984	41	0
79	131200	42	0
79	134487	43	0
79	137693	44	0
79	140899	45	0
79	144105	46	0
79	147311	47	0
79	150517	48	0
79	153792	49	0
79	156988	50	0
79	160184	51	0
79	163380	52	0
79	166576	53	0
79	169844	54	0
79	173030	55	0
79	176216	56	0
79	179402	57	0
79	182588	58	0
79	185844	59	0
79	189020	60	0
79	192196	61	0
79	195372	62	0
79	198548	63	0
79	202156	64	0
79	205322	65	0
79	208488	66	0
79	211654	67	0
79	214820	68	0
79	217986	69	0
79	221152	70	0
79	224318	71	0
79	227484	72	0
79	230650	73	0
79	233816	74	0
79	236982	75	0
79	240148	76	0
79	243314	77	0
79	246480	78	0
79	249646	79	0
79	252812	80	0
79	255978	81	0
79	259144	82	0
79	262310	83	0
79	265476	84	0
79	268642	85	0
79	271808	86	0
79	274974	87	0
79	278140	88	0
79	281306	89	0
79	284472	90	0
79	287638	91	0
79	290804	92	0
79	293970	93	0
79	297136	94	0
79	300302	95	0
79	303468	96	0
79	306634	97	0
79	309800	98	0
79	312966	99	0
79	316132	100	0
80	2910	2	4
80	6076	3	4
80	9242	4	4
80	12408	5	4
80	15574	6	4
80	18740	7	4
80	21906	8	4
80	25072	9	4
80	28239	10	4
80	31505	11	4
80	34721	12	4
80	37937	13	4
80	41153	14	4
80	44369	15	4
80	47585	16	4
80	50801	17	4
80	54017	18	4
80	57233	19	4
80	60449	20	4
80	63665	21	4
80	66881	22	4
80	70097	23	4
80	73313	24	4
80	76529	25	4
80	79745	26	4
80	82961	27	4
80	86177	28	4
80	89393	29	4
80	92609	30	4
80	95825	31	4
80	99041	32	4
80	102257	33	4
80	105473	34	4
80	108689	35	4
80	111905	36	4
80	115121	37	4
80	118337	38	4
80	121553	39	4
80	124769	40	4
80	127985	41	4
80	131201	42	4
80	134488	43	4
80	137694	44	4
80	140900	45	4
80	144106	46	4
80	147312	47	4
80	150518	48	4
80	153793	49	4
80	156989	50	4
80	160185	51	4
80	163381	52	4
80	166577	53	4
80	169845	54	4
80	173031	55	4
80	176217	56	4
80	179403	57	4
80	182589	58	4
80	185845	59	4
80	189021	60	4
80	192197	61	4
80	195373	62	4
80	198549	63	4
80	202157	64	4
80	205323	65	4
80	208489	66	4
80	211655	67	4
80	214821	68	4
80	217987	69	4
80	221153	70	4
80	224319	71	4
80	227485	72	4
80	230651	73	4
80	233817	74	4
80	236983	75	4
80	240149	76	4
80	243315	77	4
80	246481	78	4
80	249647	79	4
80	252813	80	4
80	255979	81	4
80	259145	82	4
80	262311	83	4
80	265477	84	4
80	268643	85	4
80	271809	86	4
80	274975	87	4
80	278141	88	4
80	281307	89	4
80	284473	90	4
80	287639	91	4
80	290805	92	4
80	293971	93	4
80	297137	94	4
80	300303	95	4
80	303469	96	4
80	306635	97	4
80	309801	98	4
80	312967	99	4
80	316133	100	4
81	2910	2	0.016545
81	6076	3	0.01873
81	9242	4	0.01873
81	12408	5	0.01873
81	15574	6	0.01873
81	18740	7	0.01873
81	21906	8	0.01873
81	25072	9	0.01873
81	28239	10	0.01873
81	31505	11	0.018778
81	34721	12	0.01873
81	37937	13	0.01873
81	41153	14	0.01873
81	44369	15	0.01873
81	47585	16	0.01873
81	50801	17	0.01873
81	54017	18	0.01873
81	57233	19	0.01873
81	60449	20	0.01873
81	63665	21	0.01873
81	66881	22	0.01873
81	70097	23	0.01873
81	73313	24	0.01873
81	76529	25	0.01873
81	79745	26	0.01873
81	82961	27	0.01873
81	86177	28	0.01873
81	89393	29	0.01873
81	92609	30	0.01873
81	95825	31	0.01873
81	99041	32	0.01873
81	102257	33	0.01873
81	105473	34	0.01873
81	108689	35	0.01873
81	111905	36	0.01873
81	115121	37	0.01873
81	118337	38	0.01873
81	121553	39	0.01873
81	124769	40	0.01873
81	127985	41	0.01873
81	131201	42	0.01873
81	134488	43	0.018842
81	137694	44	0.01873
81	140900	45	0.01873
81	144106	46	0.01873
81	147312	47	0.01873
81	150518	48	0.01873
81	153793	49	0.018842
81	156989	50	0.01873
81	160185	51	0.01873
81	163381	52	0.01873
81	166577	53	0.01873
81	169845	54	0.018842
81	173031	55	0.01873
81	176217	56	0.01873
81	179403	57	0.01873
81	182589	58	0.01873
81	185845	59	0.018875372366
81	189021	60	0.01873
81	192197	61	0.01873
81	195373	62	0.01873
81	198549	63	0.01873
81	202157	64	0.019434
81	205323	65	0.01873
81	208489	66	0.01873
81	211655	67	0.01873
81	214821	68	0.01873
81	217987	69	0.01873
81	221153	70	0.01873
81	224319	71	0.01873
81	227485	72	0.01873
81	230651	73	0.01873
81	233817	74	0.01873
81	236983	75	0.01873
81	240149	76	0.01873
81	243315	77	0.01873
81	246481	78	0.01873
81	249647	79	0.01873
81	252813	80	0.01873
81	255979	81	0.01873
81	259145	82	0.01873
81	262311	83	0.01873
81	265477	84	0.01873
81	268643	85	0.01873
81	271809	86	0.01873
81	274975	87	0.01873
81	278141	88	0.01873
81	281307	89	0.01873
81	284473	90	0.01873
81	287639	91	0.01873
81	290805	92	0.01873
81	293971	93	0.01873
81	297137	94	0.01873
81	300303	95	0.01873
81	303469	96	0.01873
81	306635	97	0.01873
81	309801	98	0.01873
81	312967	99	0.01873
81	316133	100	0.01873
82	2910	2	0
82	6076	3	0
82	9242	4	0
82	12408	5	0
82	15574	6	0
82	18740	7	0
82	21906	8	0
82	25072	9	0
82	28239	10	0
82	31505	11	0
82	34721	12	0
82	37937	13	0
82	41153	14	0
82	44369	15	0
82	47585	16	0
82	50801	17	0
82	54017	18	0
82	57233	19	0
82	60449	20	0
82	63665	21	0
82	66881	22	0
82	70097	23	0
82	73313	24	0
82	76529	25	0
82	79745	26	0
82	82961	27	0
82	86177	28	0
82	89393	29	0
82	92609	30	0
82	95825	31	0
82	99041	32	0
82	102257	33	0
82	105473	34	0
82	108689	35	0
82	111905	36	0
82	115121	37	0
82	118337	38	0
82	121553	39	0
82	124769	40	0
82	127985	41	0
82	131201	42	0
82	134488	43	0
82	137694	44	0
82	140900	45	0
82	144106	46	0
82	147312	47	0
82	150518	48	0
82	153793	49	0
82	156989	50	0
82	160185	51	0
82	163381	52	0
82	166577	53	0
82	169845	54	0
82	173031	55	0
82	176217	56	0
82	179403	57	0
82	182589	58	0
82	185845	59	0
82	189021	60	0
82	192197	61	0
82	195373	62	0
82	198549	63	0
82	202157	64	0
82	205323	65	0
82	208489	66	0
82	211655	67	0
82	214821	68	0
82	217987	69	0
82	221153	70	0
82	224319	71	0
82	227485	72	0
82	230651	73	0
82	233817	74	0
82	236983	75	0
82	240149	76	0
82	243315	77	0
82	246481	78	0
82	249647	79	0
82	252813	80	0
82	255979	81	0
82	259145	82	0
82	262311	83	0
82	265477	84	0
82	268643	85	0
82	271809	86	0
82	274975	87	0
82	278141	88	0
82	281307	89	0
82	284473	90	0
82	287639	91	0
82	290805	92	0
82	293971	93	0
82	297137	94	0
82	300303	95	0
82	303469	96	0
82	306635	97	0
82	309801	98	0
82	312967	99	0
82	316133	100	0
83	2911	2	5
83	6077	3	5
83	9243	4	5
83	12409	5	5
83	15575	6	5
83	18741	7	5
83	21907	8	5
83	25073	9	5
83	28240	10	5
83	31506	11	5
83	34722	12	5
83	37938	13	5
83	41154	14	5
83	44370	15	5
83	47586	16	5
83	50802	17	5
83	54018	18	5
83	57234	19	5
83	60450	20	5
83	63666	21	5
83	66882	22	5
83	70098	23	5
83	73314	24	5
83	76530	25	5
83	79746	26	5
83	82962	27	5
83	86178	28	5
83	89394	29	5
83	92610	30	5
83	95826	31	5
83	99042	32	5
83	102258	33	5
83	105474	34	5
83	108690	35	5
83	111906	36	5
83	115122	37	5
83	118338	38	5
83	121554	39	5
83	124770	40	5
83	127986	41	5
83	131202	42	5
83	134489	43	5
83	137695	44	5
83	140901	45	5
83	144107	46	5
83	147313	47	5
83	150519	48	5
83	153794	49	5
83	156990	50	5
83	160186	51	5
83	163382	52	5
83	166578	53	5
83	169846	54	5
83	173032	55	5
83	176218	56	5
83	179404	57	5
83	182590	58	5
83	185846	59	5
83	189022	60	5
83	192198	61	5
83	195374	62	5
83	198550	63	5
83	202158	64	5
83	205324	65	5
83	208490	66	5
83	211656	67	5
83	214822	68	5
83	217988	69	5
83	221154	70	5
83	224320	71	5
83	227486	72	5
83	230652	73	5
83	233818	74	5
83	236984	75	5
83	240150	76	5
83	243316	77	5
83	246482	78	5
83	249648	79	5
83	252814	80	5
83	255980	81	5
83	259146	82	5
83	262312	83	5
83	265478	84	5
83	268644	85	5
83	271810	86	5
83	274976	87	5
83	278142	88	5
83	281308	89	5
83	284474	90	5
83	287640	91	5
83	290806	92	5
83	293972	93	5
83	297138	94	5
83	300304	95	5
83	303470	96	5
83	306636	97	5
83	309802	98	5
83	312968	99	5
83	316134	100	5
84	2911	2	0.016545
84	6077	3	0.01873
84	9243	4	0.01873
84	12409	5	0.01873
84	15575	6	0.01873
84	18741	7	0.01873
84	21907	8	0.01873
84	25073	9	0.01873
84	28240	10	0.01873
84	31506	11	0.018778
84	34722	12	0.01873
84	37938	13	0.01873
84	41154	14	0.01873
84	44370	15	0.01873
84	47586	16	0.01873
84	50802	17	0.01873
84	54018	18	0.01873
84	57234	19	0.01873
84	60450	20	0.01873
84	63666	21	0.01873
84	66882	22	0.01873
84	70098	23	0.01873
84	73314	24	0.01873
84	76530	25	0.01873
84	79746	26	0.01873
84	82962	27	0.01873
84	86178	28	0.01873
84	89394	29	0.01873
84	92610	30	0.01873
84	95826	31	0.01873
84	99042	32	0.01873
84	102258	33	0.01873
84	105474	34	0.01873
84	108690	35	0.01873
84	111906	36	0.01873
84	115122	37	0.01873
84	118338	38	0.01873
84	121554	39	0.01873
84	124770	40	0.01873
84	127986	41	0.01873
84	131202	42	0.01873
84	134489	43	0.018842
84	137695	44	0.01873
84	140901	45	0.01873
84	144107	46	0.01873
84	147313	47	0.01873
84	150519	48	0.01873
84	153794	49	0.018842
84	156990	50	0.01873
84	160186	51	0.01873
84	163382	52	0.01873
84	166578	53	0.01873
84	169846	54	0.018842
84	173032	55	0.01873
84	176218	56	0.01873
84	179404	57	0.01873
84	182590	58	0.01873
84	185846	59	0.018842
84	189022	60	0.01873
84	192198	61	0.01873
84	195374	62	0.01873
84	198550	63	0.01873
84	202158	64	0.019467465668
84	205324	65	0.01873
84	208490	66	0.01873
84	211656	67	0.01873
84	214822	68	0.01873
84	217988	69	0.01873
84	221154	70	0.01873
84	224320	71	0.01873
84	227486	72	0.01873
84	230652	73	0.01873
84	233818	74	0.01873
84	236984	75	0.01873
84	240150	76	0.01873
84	243316	77	0.01873
84	246482	78	0.01873
84	249648	79	0.01873
84	252814	80	0.01873
84	255980	81	0.01873
84	259146	82	0.01873
84	262312	83	0.01873
84	265478	84	0.01873
84	268644	85	0.01873
84	271810	86	0.01873
84	274976	87	0.01873
84	278142	88	0.01873
84	281308	89	0.01873
84	284474	90	0.01873
84	287640	91	0.01873
84	290806	92	0.01873
84	293972	93	0.01873
84	297138	94	0.01873
84	300304	95	0.01873
84	303470	96	0.01873
84	306636	97	0.01873
84	309802	98	0.01873
84	312968	99	0.01873
84	316134	100	0.01873
85	2911	2	0
85	6077	3	0
85	9243	4	0
85	12409	5	0
85	15575	6	0
85	18741	7	0
85	21907	8	0
85	25073	9	0
85	28240	10	0
85	31506	11	0
85	34722	12	0
85	37938	13	0
85	41154	14	0
85	44370	15	0
85	47586	16	0
85	50802	17	0
85	54018	18	0
85	57234	19	0
85	60450	20	0
85	63666	21	0
85	66882	22	0
85	70098	23	0
85	73314	24	0
85	76530	25	0
85	79746	26	0
85	82962	27	0
85	86178	28	0
85	89394	29	0
85	92610	30	0
85	95826	31	0
85	99042	32	0
85	102258	33	0
85	105474	34	0
85	108690	35	0
85	111906	36	0
85	115122	37	0
85	118338	38	0
85	121554	39	0
85	124770	40	0
85	127986	41	0
85	131202	42	0
85	134489	43	0
85	137695	44	0
85	140901	45	0
85	144107	46	0
85	147313	47	0
85	150519	48	0
85	153794	49	0
85	156990	50	0
85	160186	51	0
85	163382	52	0
85	166578	53	0
85	169846	54	0
85	173032	55	0
85	176218	56	0
85	179404	57	0
85	182590	58	0
85	185846	59	0
85	189022	60	0
85	192198	61	0
85	195374	62	0
85	198550	63	0
85	202158	64	0
85	205324	65	0
85	208490	66	0
85	211656	67	0
85	214822	68	0
85	217988	69	0
85	221154	70	0
85	224320	71	0
85	227486	72	0
85	230652	73	0
85	233818	74	0
85	236984	75	0
85	240150	76	0
85	243316	77	0
85	246482	78	0
85	249648	79	0
85	252814	80	0
85	255980	81	0
85	259146	82	0
85	262312	83	0
85	265478	84	0
85	268644	85	0
85	271810	86	0
85	274976	87	0
85	278142	88	0
85	281308	89	0
85	284474	90	0
85	287640	91	0
85	290806	92	0
85	293972	93	0
85	297138	94	0
85	300304	95	0
85	303470	96	0
85	306636	97	0
85	309802	98	0
85	312968	99	0
85	316134	100	0

