version 3
run BreakRanksNoGui-816-20240710-17:14:11-270517
attr configname BreakRanksNoGui
attr datetime 20240710-17:14:11
attr datetimef 20240710-171411
attr experiment BreakRanksNoGui
attr inifile omnetpp.ini
attr iterationvars "$nCars=3, $platoonSize=3, $nLanes=1, $ploegH=0.5, $controller=1, $headway=0.1, $leaderHeadway=1.2, $leaderSpeed=130, $breakRanksSafetyDistance=3, $minSpeed=120, $maxSpeed=140, $beaconInterval=0.1, $priority=4, $packetSize=200, $sController=\"CACC\", $0=2, $1=0"
attr iterationvarsd nCars=3/platoonSize=3/nLanes=1/ploegH=0.5/controller=1/headway=0.1/leaderHeadway=1.2/leaderSpeed=130/breakRanksSafetyDistance=3/minSpeed=120/maxSpeed=140/beaconInterval=0.1/priority=4/packetSize=200/sController=CACC/2/0
attr iterationvarsf nCars=3,platoonSize=3,nLanes=1,ploegH=0.5,controller=1,headway=0.1,leaderHeadway=1.2,leaderSpeed=130,breakRanksSafetyDistance=3,minSpeed=120,maxSpeed=140,beaconInterval=0.1,priority=4,packetSize=200,sController=CACC,2,0-
attr measurement "$nCars=3, $platoonSize=3, $nLanes=1, $ploegH=0.5, $controller=1, $headway=0.1, $leaderHeadway=1.2, $leaderSpeed=130, $breakRanksSafetyDistance=3, $minSpeed=120, $maxSpeed=140, $beaconInterval=0.1, $priority=4, $packetSize=200, $sController=\"CACC\", $0=2, $1=0"
attr network Highway
attr processid 270517
attr repetition 6
attr replication #6
attr resultdir results
attr runnumber 816
attr seedset 6
itervar beaconInterval 0.1
itervar breakRanksSafetyDistance 3
itervar controller 1
itervar headway 0.1
itervar leaderHeadway 1.2
itervar leaderSpeed 130
itervar maxSpeed 140
itervar minSpeed 120
itervar nCars 3
itervar nLanes 1
itervar packetSize 200
itervar platoonSize 3
itervar ploegH 0.5
itervar priority 4
itervar sController "\"CACC\""
config image-path ../../../veins/images
config repeat 10
config extends BreakRanks
config *.manager.command "\"sumo\""
config *.manager.ignoreGuiCommands true
config output-vector-file "results/BreakRanks_1_0.1_130_3_3 /result_6.vec"
config output-scalar-file "results/BreakRanks_1_0.1_130_3_3 /result_6.sca"
config extends Platooning
config *.node[*].scenario_type "\"BreakRanksScenario\""
config *.manager.command "\"sumo-gui\""
config *.node[*].scenario_type "\"SimpleScenario\""
config cmdenv-express-mode true
config cmdenv-autoflush true
config cmdenv-status-frequency 15s
config num-rngs 6
config network Highway
config debug-on-errors true
config print-undisposed true
config *.playgroundSizeX 65000m
config *.playgroundSizeY 25000m
config *.playgroundSizeZ 50m
config sim-time-limit "100 s"
config *.annotations.draw false
config *.obstacles.debug false
config *.world.useTorus false
config *.world.use2D false
config *.manager.updateInterval 0.01s
config *.manager.host "\"localhost\""
config *.manager.moduleType "\"org.car2x.plexe.PlatoonCar\""
config *.manager.moduleName "\"node\""
config *.manager.moduleDisplayString "\"\""
config *.manager.autoShutdown true
config *.manager.margin 25
config *.connectionManager.sendDirect true
config *.connectionManager.maxInterfDist 2600m
config *.connectionManager.drawMaxIntfDist false
config *.**.nic.mac1609_4.useServiceChannel false
config *.**.nic.mac1609_4.txPower 100mW
config *.**.nic.mac1609_4.bitrate 6Mbps
config *.**.nic.mac1609_4.useAcks true
config *.**.nic.mac1609_4.ackErrorRate 0.0
config *.**.nic.mac1609_4.frameErrorRate 0.0
config *.**.nic.phy80211p.minPowerLevel -94dBm
config *.**.nic.phy80211p.maxTXPower 100mW
config *.**.nic.phy80211p.useNoiseFloor true
config *.**.nic.phy80211p.noiseFloor -95dBm
config *.**.nic.phy80211p.decider "xmldoc(\"config.xml\")"
config *.**.nic.phy80211p.analogueModels "xmldoc(\"config.xml\")"
config *.**.nic.phy80211p.usePropagationDelay true
config *.node[*].mobility.x 0
config *.node[*].mobility.y 0
config *.node[*].mobility.z 1.895
config seed-set 6
config **.seed 6
config *.node[*].prot.rng-0 2
config *.node[*].appl.rng-0 3
config *.node[*].scenario.rng-0 4
config **.traffic.rng-0 5
config *.manager.configFile "\"./sumocfg/freeway.sumo.cfg\""
config *.manager.launchConfig "xmldoc(\"./sumocfg/freeway.launchd.xml\")"
config **.numberOfCars 3
config **.numberOfCarsPerPlatoon 3
config **.numberOfLanes 1
config *.node[*].helper_type "\"PositionHelper\""
config *.node[*].scenario.caccC1 0.5
config *.node[*].scenario.caccXi 1
config *.node[*].scenario.caccOmegaN "0.2 Hz"
config *.node[*].scenario.caccSpacing "2 m"
config *.node[*].scenario.engineTau "0.5 s"
config *.node[*].scenario.ploegH 0.5s
config *.node[*].scenario.ploegKp 0.2
config *.node[*].scenario.ploegKd 0.7
config *.node[*].scenario.useRealisticEngine false
config *.node[*].scenario.useControllerAcceleration true
config *.node[*].scenario.nLanes 1
config **.numericController 1
config **.headway 0.1s
config *.node[*].scenario.accHeadway 0.1s
config *.node[*].scenario.leaderHeadway 1.2s
config *.node[*].scenario.leaderSpeed 130kmph
config *.node[*].appl_type "\"SimplePlatooningApp\""
config *.node[*].appl.*.scalar-recording true
config *.node[*].appl.*.vector-recording true
config *.node[0].appl.breakRanksSafetyDistance 3m
config *.node[*].appl.minSpeed 120kmph
config *.node[*].appl.maxSpeed 140kmph
config *.node[*].protocol_type "\"SimplePlatooningBeaconing\""
config *.node[*].prot.*.scalar-recording true
config *.node[*].prot.*.vector-recording true
config *.node[*].prot.beaconingInterval 0.1s
config *.node[*].prot.priority 4
config *.node[*].prot.packetSize 200
config **.traffic_type "\"PlatoonsTrafficManager\""
config **.traffic.platoonInsertTime "1 s"
config **.traffic.platoonInsertSpeed 130kmph
config **.traffic.nCars 3
config **.traffic.platoonSize 3
config **.traffic.nLanes 1
config **.traffic.platooningVType "\"vtypeauto\""
config **.traffic.controller "\"CACC\""
config **.traffic.platoonInsertDistance 2m
config **.traffic.platoonInsertHeadway 0s
config **.traffic.platoonLeaderHeadway 1.2s
config **.scalar-recording false
config **.vector-recording false

vector 0 Highway.node[0].appl distance ETV
vector 1 Highway.node[0].appl relativeSpeed ETV
vector 2 Highway.node[0].appl nodeId ETV
vector 3 Highway.node[0].appl acceleration ETV
vector 4 Highway.node[0].appl controllerAcceleration ETV
vector 5 Highway.node[0].appl speed ETV
vector 6 Highway.node[0].appl posx ETV
vector 7 Highway.node[0].appl posy ETV
vector 8 Highway.node[1].appl distance ETV
vector 9 Highway.node[1].appl relativeSpeed ETV
vector 10 Highway.node[1].appl nodeId ETV
vector 11 Highway.node[1].appl acceleration ETV
vector 12 Highway.node[1].appl controllerAcceleration ETV
vector 13 Highway.node[1].appl speed ETV
vector 14 Highway.node[1].appl posx ETV
vector 15 Highway.node[1].appl posy ETV
vector 16 Highway.node[2].appl distance ETV
vector 17 Highway.node[2].appl relativeSpeed ETV
vector 18 Highway.node[2].appl nodeId ETV
vector 19 Highway.node[2].appl acceleration ETV
vector 20 Highway.node[2].appl controllerAcceleration ETV
vector 21 Highway.node[2].appl speed ETV
vector 22 Highway.node[2].appl posx ETV
vector 23 Highway.node[2].appl posy ETV
vector 24 Highway.node[1].prot leaderDelay ETV
vector 25 Highway.node[1].prot leaderDelayId ETV
vector 26 Highway.node[1].prot frontDelay ETV
vector 27 Highway.node[1].prot frontDelayId ETV
vector 28 Highway.node[2].prot leaderDelay ETV
vector 29 Highway.node[2].prot leaderDelayId ETV
vector 30 Highway.node[2].prot frontDelay ETV
vector 31 Highway.node[2].prot frontDelayId ETV
vector 32 Highway.node[0].prot nodeId ETV
vector 33 Highway.node[0].prot busyTime ETV
vector 34 Highway.node[0].prot collisions ETV
vector 35 Highway.node[1].prot nodeId ETV
vector 36 Highway.node[1].prot busyTime ETV
vector 37 Highway.node[1].prot collisions ETV
vector 38 Highway.node[2].prot nodeId ETV
vector 39 Highway.node[2].prot busyTime ETV
vector 40 Highway.node[2].prot collisions ETV
0	113	1.11	-1
0	204	1.21	-1
0	295	1.31	-1
0	386	1.41	-1
0	477	1.51	-1
0	568	1.61	-1
0	659	1.71	-1
0	750	1.81	-1
0	841	1.91	-1
0	935	2.01	-1
0	1026	2.11	-1
0	1117	2.21	-1
0	1208	2.31	-1
0	1299	2.41	-1
0	1390	2.51	-1
0	1481	2.61	-1
0	1572	2.71	-1
0	1663	2.81	-1
0	1754	2.91	-1
0	1848	3.01	-1
0	1939	3.11	-1
0	2030	3.21	-1
0	2121	3.31	-1
0	2212	3.41	-1
0	2303	3.51	-1
0	2394	3.61	-1
0	2485	3.71	-1
0	2576	3.81	-1
0	2667	3.91	-1
0	2761	4.01	-1
0	2852	4.11	-1
0	2943	4.21	-1
0	3034	4.31	-1
0	3125	4.41	-1
0	3216	4.51	-1
0	3307	4.61	-1
0	3398	4.71	-1
0	3489	4.81	-1
0	3580	4.91	-1
0	3674	5.01	-1
0	3765	5.11	-1
0	3856	5.21	-1
0	3947	5.31	-1
0	4038	5.41	-1
0	4129	5.51	-1
0	4220	5.61	-1
0	4311	5.71	-1
0	4402	5.81	-1
0	4493	5.91	-1
0	4587	6.01	-1
0	4678	6.11	-1
0	4769	6.21	-1
0	4860	6.31	-1
0	4951	6.41	-1
0	5042	6.51	-1
0	5133	6.61	-1
0	5224	6.71	-1
0	5315	6.81	-1
0	5406	6.91	-1
0	5500	7.01	-1
0	5591	7.11	-1
0	5682	7.21	-1
0	5773	7.31	-1
0	5864	7.41	-1
0	5955	7.51	-1
0	6046	7.61	-1
0	6137	7.71	-1
0	6228	7.81	-1
0	6319	7.91	-1
0	6413	8.01	-1
0	6504	8.11	-1
0	6595	8.21	-1
0	6686	8.31	-1
0	6777	8.41	-1
0	6868	8.51	-1
0	6959	8.61	-1
0	7050	8.71	-1
0	7141	8.81	-1
0	7232	8.91	-1
0	7326	9.01	-1
0	7417	9.11	-1
0	7508	9.21	-1
0	7599	9.31	-1
0	7690	9.41	-1
0	7781	9.51	-1
0	7872	9.61	-1
0	7963	9.71	-1
0	8054	9.81	-1
0	8145	9.91	-1
0	8268	10.01	-1
0	8361	10.11	-1
0	8454	10.21	-1
0	8547	10.31	-1
0	8640	10.41	-1
0	8733	10.51	-1
0	8826	10.61	-1
0	8919	10.71	-1
0	9012	10.81	-1
0	9105	10.91	-1
0	9201	11.01	-1
0	9294	11.11	-1
0	9387	11.21	-1
0	9480	11.31	-1
0	9573	11.41	-1
0	9666	11.51	-1
0	9759	11.61	-1
0	9852	11.71	-1
0	9945	11.81	-1
0	10038	11.91	-1
0	10134	12.01	-1
0	10227	12.11	-1
0	10320	12.21	-1
0	10413	12.31	-1
0	10506	12.41	-1
0	10599	12.51	-1
0	10692	12.61	-1
0	10785	12.71	-1
0	10878	12.81	-1
0	10971	12.91	-1
0	11067	13.01	-1
0	11160	13.11	-1
0	11253	13.21	-1
0	11346	13.31	-1
0	11439	13.41	-1
0	11532	13.51	-1
0	11625	13.61	-1
0	11718	13.71	-1
0	11811	13.81	-1
0	11904	13.91	-1
0	12000	14.01	-1
0	12093	14.11	-1
0	12186	14.21	-1
0	12279	14.31	-1
0	12372	14.41	-1
0	12465	14.51	-1
0	12558	14.61	-1
0	12651	14.71	-1
0	12744	14.81	-1
0	12837	14.91	-1
0	12933	15.01	-1
0	13026	15.11	-1
0	13119	15.21	-1
0	13212	15.31	-1
0	13305	15.41	-1
0	13398	15.51	-1
0	13491	15.61	-1
0	13584	15.71	-1
0	13677	15.81	-1
0	13770	15.91	-1
0	13866	16.01	-1
0	13959	16.11	-1
0	14052	16.21	-1
0	14145	16.31	-1
0	14238	16.41	-1
0	14331	16.51	-1
0	14424	16.61	-1
0	14517	16.71	-1
0	14610	16.81	-1
0	14703	16.91	-1
0	14799	17.01	-1
0	14892	17.11	-1
0	14985	17.21	-1
0	15078	17.31	-1
0	15171	17.41	-1
0	15264	17.51	-1
0	15357	17.61	-1
0	15450	17.71	-1
0	15543	17.81	-1
0	15636	17.91	-1
0	15732	18.01	-1
0	15825	18.11	-1
0	15918	18.21	-1
0	16011	18.31	-1
0	16104	18.41	-1
0	16197	18.51	-1
0	16290	18.61	-1
0	16383	18.71	-1
0	16476	18.81	-1
0	16569	18.91	-1
0	16665	19.01	-1
0	16758	19.11	-1
0	16851	19.21	-1
0	16944	19.31	-1
0	17037	19.41	-1
0	17130	19.51	-1
0	17223	19.61	-1
0	17316	19.71	-1
0	17409	19.81	-1
0	17502	19.91	-1
0	17598	20.01	-1
0	17691	20.11	-1
0	17784	20.21	-1
0	17877	20.31	-1
0	17970	20.41	-1
0	18063	20.51	-1
0	18156	20.61	-1
0	18249	20.71	-1
0	18342	20.81	-1
0	18435	20.91	-1
0	18531	21.01	-1
0	18624	21.11	-1
0	18717	21.21	-1
0	18810	21.31	-1
0	18903	21.41	-1
0	18996	21.51	-1
0	19089	21.61	-1
0	19182	21.71	-1
0	19275	21.81	-1
0	19368	21.91	-1
0	19464	22.01	-1
0	19557	22.11	-1
0	19650	22.21	-1
0	19743	22.31	-1
0	19836	22.41	-1
0	19929	22.51	-1
0	20022	22.61	-1
0	20115	22.71	-1
0	20208	22.81	-1
0	20301	22.91	-1
0	20397	23.01	-1
0	20490	23.11	-1
0	20583	23.21	-1
0	20676	23.31	-1
0	20769	23.41	-1
0	20862	23.51	-1
0	20955	23.61	-1
0	21048	23.71	-1
0	21141	23.81	-1
0	21234	23.91	-1
0	21330	24.01	-1
0	21423	24.11	-1
0	21516	24.21	-1
0	21609	24.31	-1
0	21702	24.41	-1
0	21795	24.51	-1
0	21888	24.61	-1
0	21981	24.71	-1
0	22074	24.81	-1
0	22167	24.91	-1
0	22263	25.01	-1
0	22356	25.11	-1
0	22449	25.21	-1
0	22542	25.31	-1
0	22635	25.41	-1
0	22728	25.51	-1
0	22821	25.61	-1
0	22914	25.71	-1
0	23007	25.81	-1
0	23100	25.91	-1
0	23196	26.01	-1
0	23289	26.11	-1
0	23382	26.21	-1
0	23475	26.31	-1
0	23568	26.41	-1
0	23661	26.51	-1
0	23754	26.61	-1
0	23847	26.71	-1
0	23940	26.81	-1
0	24033	26.91	-1
0	24129	27.01	-1
0	24222	27.11	-1
0	24315	27.21	-1
0	24408	27.31	-1
0	24501	27.41	-1
0	24594	27.51	-1
0	24687	27.61	-1
0	24780	27.71	-1
0	24873	27.81	-1
0	24966	27.91	-1
0	25062	28.01	-1
0	25155	28.11	-1
0	25248	28.21	-1
0	25341	28.31	-1
0	25434	28.41	-1
0	25527	28.51	-1
0	25620	28.61	-1
0	25713	28.71	-1
0	25806	28.81	-1
0	25899	28.91	-1
0	25995	29.01	-1
0	26088	29.11	-1
0	26181	29.21	-1
0	26317	29.31	-1
0	26409	29.41	-1
0	26501	29.51	-1
0	26593	29.61	-1
0	26685	29.71	-1
0	26777	29.81	-1
0	26869	29.91	-1
0	26964	30.01	-1
0	27056	30.11	-1
0	27148	30.21	-1
0	27240	30.31	-1
0	27332	30.41	-1
0	27424	30.51	-1
0	27516	30.61	-1
0	27608	30.71	-1
0	27700	30.81	-1
0	27792	30.91	-1
0	27887	31.01	-1
0	27979	31.11	-1
0	28071	31.21	-1
0	28163	31.31	-1
0	28255	31.41	-1
0	28347	31.51	-1
0	28439	31.61	-1
0	28531	31.71	-1
0	28623	31.81	-1
0	28715	31.91	-1
0	28810	32.01	-1
0	28902	32.11	-1
0	28994	32.21	-1
0	29086	32.31	-1
0	29178	32.41	-1
0	29270	32.51	-1
0	29362	32.61	-1
0	29454	32.71	-1
0	29546	32.81	-1
0	29638	32.91	-1
0	29733	33.01	-1
0	29825	33.11	-1
0	29917	33.21	-1
0	30009	33.31	-1
0	30101	33.41	-1
0	30322	33.51	-1
0	30413	33.61	-1
0	30504	33.71	-1
0	30595	33.81	-1
0	30686	33.91	-1
0	30780	34.01	-1
0	30871	34.11	-1
0	30962	34.21	-1
0	31053	34.31	-1
0	31144	34.41	-1
0	31235	34.51	-1
0	31326	34.61	-1
0	31417	34.71	-1
0	31508	34.81	-1
0	31599	34.91	-1
0	31693	35.01	-1
0	31784	35.11	-1
0	31875	35.21	-1
0	31966	35.31	-1
0	32057	35.41	-1
0	32148	35.51	-1
0	32239	35.61	-1
0	32330	35.71	-1
0	32421	35.81	-1
0	32512	35.91	-1
0	32606	36.01	-1
0	32697	36.11	-1
0	32788	36.21	-1
0	32879	36.31	-1
0	32970	36.41	-1
0	33061	36.51	-1
0	33152	36.61	-1
0	33243	36.71	-1
0	33334	36.81	-1
0	33425	36.91	-1
0	33519	37.01	-1
0	33610	37.11	-1
0	33701	37.21	-1
0	33792	37.31	-1
0	33883	37.41	-1
0	33974	37.51	-1
0	34065	37.61	-1
0	34156	37.71	-1
0	34247	37.81	-1
0	34338	37.91	-1
0	34432	38.01	-1
0	34523	38.11	-1
0	34614	38.21	-1
0	34705	38.31	-1
0	34796	38.41	-1
0	34887	38.51	-1
0	34978	38.61	-1
0	35069	38.71	-1
0	35160	38.81	-1
0	35251	38.91	-1
0	35345	39.01	-1
0	35436	39.11	-1
0	35527	39.21	-1
0	35618	39.31	-1
0	35709	39.41	-1
0	35800	39.51	-1
0	35891	39.61	-1
0	35982	39.71	-1
0	36073	39.81	-1
0	36164	39.91	-1
0	36258	40.01	-1
0	36349	40.11	-1
0	36440	40.21	-1
0	36531	40.31	-1
0	36622	40.41	-1
0	36713	40.51	-1
0	36804	40.61	-1
0	36895	40.71	-1
0	36986	40.81	-1
0	37077	40.91	-1
0	37171	41.01	-1
0	37262	41.11	-1
0	37353	41.21	-1
0	37444	41.31	-1
0	37535	41.41	-1
0	37626	41.51	-1
0	37717	41.61	-1
0	37808	41.71	-1
0	37899	41.81	-1
0	37990	41.91	-1
0	38084	42.01	-1
0	38175	42.11	-1
0	38266	42.21	-1
0	38357	42.31	-1
0	38448	42.41	-1
0	38539	42.51	-1
0	38630	42.61	-1
0	38721	42.71	-1
0	38812	42.81	-1
0	38903	42.91	-1
0	38997	43.01	-1
0	39088	43.11	-1
0	39179	43.21	-1
0	39270	43.31	-1
0	39361	43.41	-1
0	39452	43.51	-1
0	39543	43.61	-1
0	39634	43.71	-1
0	39725	43.81	-1
0	39816	43.91	-1
0	39910	44.01	-1
0	40001	44.11	-1
0	40092	44.21	-1
0	40183	44.31	-1
0	40274	44.41	-1
0	40365	44.51	-1
0	40456	44.61	-1
0	40547	44.71	-1
0	40638	44.81	-1
0	40729	44.91	-1
0	40823	45.01	-1
0	40914	45.11	-1
0	41005	45.21	-1
0	41096	45.31	-1
0	41187	45.41	-1
0	41278	45.51	-1
0	41369	45.61	-1
0	41460	45.71	-1
0	41551	45.81	-1
0	41642	45.91	-1
0	41736	46.01	-1
0	41827	46.11	-1
0	41918	46.21	-1
0	42009	46.31	-1
0	42100	46.41	-1
0	42191	46.51	-1
0	42282	46.61	-1
0	42373	46.71	-1
0	42464	46.81	-1
0	42555	46.91	-1
0	42649	47.01	-1
0	42740	47.11	-1
0	42831	47.21	-1
0	42922	47.31	-1
0	43013	47.41	-1
0	43104	47.51	-1
0	43195	47.61	-1
0	43286	47.71	-1
0	43377	47.81	-1
0	43468	47.91	-1
0	43562	48.01	-1
0	43653	48.11	-1
0	43744	48.21	-1
0	43835	48.31	-1
0	43926	48.41	-1
0	44017	48.51	-1
0	44108	48.61	-1
0	44199	48.71	-1
0	44290	48.81	-1
0	44381	48.91	-1
0	44475	49.01	-1
0	44566	49.11	-1
0	44657	49.21	-1
0	44748	49.31	-1
0	44839	49.41	-1
0	44930	49.51	-1
0	45021	49.61	-1
0	45112	49.71	-1
0	45203	49.81	-1
0	45294	49.91	-1
0	45388	50.01	-1
0	45479	50.11	-1
0	45570	50.21	-1
0	45661	50.31	-1
0	45752	50.41	-1
0	45843	50.51	-1
0	45934	50.61	-1
0	46025	50.71	-1
0	46116	50.81	-1
0	46207	50.91	-1
0	46301	51.01	-1
0	46392	51.11	-1
0	46483	51.21	-1
0	46574	51.31	-1
0	46665	51.41	-1
0	46756	51.51	-1
0	46847	51.61	-1
0	46938	51.71	-1
0	47029	51.81	-1
0	47120	51.91	-1
0	47214	52.01	-1
0	47305	52.11	-1
0	47396	52.21	-1
0	47487	52.31	-1
0	47578	52.41	-1
0	47669	52.51	-1
0	47760	52.61	-1
0	47851	52.71	-1
0	47942	52.81	-1
0	48033	52.91	-1
0	48127	53.01	-1
0	48218	53.11	-1
0	48309	53.21	-1
0	48400	53.31	-1
0	48491	53.41	-1
0	48582	53.51	-1
0	48673	53.61	-1
0	48764	53.71	-1
0	48855	53.81	-1
0	48946	53.91	-1
0	49040	54.01	-1
0	49131	54.11	-1
0	49222	54.21	-1
0	49313	54.31	-1
0	49404	54.41	-1
0	49495	54.51	-1
0	49586	54.61	-1
0	49677	54.71	-1
0	49768	54.81	-1
0	49859	54.91	-1
0	49953	55.01	-1
0	50044	55.11	-1
0	50135	55.21	-1
0	50226	55.31	-1
0	50317	55.41	-1
0	50408	55.51	-1
0	50499	55.61	-1
0	50590	55.71	-1
0	50681	55.81	-1
0	50772	55.91	-1
0	50866	56.01	-1
0	50957	56.11	-1
0	51048	56.21	-1
0	51139	56.31	-1
0	51230	56.41	-1
0	51321	56.51	-1
0	51412	56.61	-1
0	51503	56.71	-1
0	51594	56.81	-1
0	51685	56.91	-1
0	51779	57.01	-1
0	51870	57.11	-1
0	51961	57.21	-1
0	52052	57.31	-1
0	52143	57.41	-1
0	52234	57.51	-1
0	52325	57.61	-1
0	52416	57.71	-1
0	52507	57.81	-1
0	52598	57.91	-1
0	52692	58.01	-1
0	52783	58.11	-1
0	52874	58.21	-1
0	52965	58.31	-1
0	53056	58.41	-1
0	53147	58.51	-1
0	53238	58.61	-1
0	53329	58.71	-1
0	53420	58.81	-1
0	53511	58.91	-1
0	53605	59.01	-1
0	53696	59.11	-1
0	53787	59.21	-1
0	53878	59.31	-1
0	53969	59.41	-1
0	54060	59.51	-1
0	54151	59.61	-1
0	54242	59.71	-1
0	54333	59.81	-1
0	54424	59.91	-1
0	54518	60.01	-1
0	54609	60.11	-1
0	54700	60.21	-1
0	54791	60.31	-1
0	54882	60.41	-1
0	54973	60.51	-1
0	55064	60.61	-1
0	55155	60.71	-1
0	55246	60.81	-1
0	55337	60.91	-1
0	55431	61.01	-1
0	55522	61.11	-1
0	55613	61.21	-1
0	55704	61.31	-1
0	55795	61.41	-1
0	55886	61.51	-1
0	55977	61.61	-1
0	56068	61.71	-1
0	56159	61.81	-1
0	56250	61.91	-1
0	56344	62.01	-1
0	56435	62.11	-1
0	56526	62.21	-1
0	56617	62.31	-1
0	56708	62.41	-1
0	56799	62.51	-1
0	56890	62.61	-1
0	56981	62.71	-1
0	57072	62.81	-1
0	57163	62.91	-1
0	57257	63.01	-1
0	57348	63.11	-1
0	57439	63.21	-1
0	57530	63.31	-1
0	57621	63.41	-1
0	57712	63.51	-1
0	57803	63.61	-1
0	57894	63.71	-1
0	57985	63.81	-1
0	58076	63.91	-1
0	58170	64.01	-1
0	58261	64.11	-1
0	58352	64.21	-1
0	58443	64.31	-1
0	58534	64.41	-1
0	58625	64.51	-1
0	58716	64.61	-1
0	58807	64.71	-1
0	58898	64.81	-1
0	58989	64.91	-1
0	59083	65.01	-1
0	59174	65.11	-1
0	59265	65.21	-1
0	59356	65.31	-1
0	59447	65.41	-1
0	59538	65.51	-1
0	59629	65.61	-1
0	59720	65.71	-1
0	59811	65.81	-1
0	59902	65.91	-1
0	59996	66.01	-1
0	60087	66.11	-1
0	60178	66.21	-1
0	60269	66.31	-1
0	60360	66.41	-1
0	60451	66.51	-1
0	60542	66.61	-1
0	60633	66.71	-1
0	60724	66.81	-1
0	60815	66.91	-1
0	60909	67.01	-1
0	61000	67.11	-1
0	61091	67.21	-1
0	61182	67.31	-1
0	61273	67.41	-1
0	61364	67.51	-1
0	61455	67.61	-1
0	61546	67.71	-1
0	61637	67.81	-1
0	61728	67.91	-1
0	61822	68.01	-1
0	61913	68.11	-1
0	62004	68.21	-1
0	62095	68.31	-1
0	62186	68.41	-1
0	62277	68.51	-1
0	62368	68.61	-1
0	62459	68.71	-1
0	62550	68.81	-1
0	62641	68.91	-1
0	62735	69.01	-1
0	62826	69.11	-1
0	62917	69.21	-1
0	63008	69.31	-1
0	63099	69.41	-1
0	63190	69.51	-1
0	63281	69.61	-1
0	63372	69.71	-1
0	63463	69.81	-1
0	63554	69.91	-1
0	63648	70.01	-1
0	63739	70.11	-1
0	63830	70.21	-1
0	63921	70.31	-1
0	64012	70.41	-1
0	64103	70.51	-1
0	64194	70.61	-1
0	64285	70.71	-1
0	64376	70.81	-1
0	64467	70.91	-1
0	64561	71.01	-1
0	64652	71.11	-1
0	64743	71.21	-1
0	64834	71.31	-1
0	64925	71.41	-1
0	65016	71.51	-1
0	65107	71.61	-1
0	65198	71.71	-1
0	65289	71.81	-1
0	65380	71.91	-1
0	65474	72.01	-1
0	65565	72.11	-1
0	65656	72.21	-1
0	65747	72.31	-1
0	65838	72.41	-1
0	65929	72.51	-1
0	66020	72.61	-1
0	66111	72.71	-1
0	66202	72.81	-1
0	66293	72.91	-1
0	66387	73.01	-1
0	66478	73.11	-1
0	66569	73.21	-1
0	66660	73.31	-1
0	66751	73.41	-1
0	66842	73.51	-1
0	66933	73.61	-1
0	67024	73.71	-1
0	67115	73.81	-1
0	67206	73.91	-1
0	67300	74.01	-1
0	67391	74.11	-1
0	67482	74.21	-1
0	67573	74.31	-1
0	67664	74.41	-1
0	67755	74.51	-1
0	67846	74.61	-1
0	67937	74.71	-1
0	68028	74.81	-1
0	68119	74.91	-1
0	68213	75.01	-1
0	68304	75.11	-1
0	68395	75.21	-1
0	68486	75.31	-1
0	68577	75.41	-1
0	68668	75.51	-1
0	68759	75.61	-1
0	68850	75.71	-1
0	68941	75.81	-1
0	69032	75.91	-1
0	69126	76.01	-1
0	69217	76.11	-1
0	69308	76.21	-1
0	69399	76.31	-1
0	69490	76.41	-1
0	69581	76.51	-1
0	69672	76.61	-1
0	69763	76.71	-1
0	69854	76.81	-1
0	69945	76.91	-1
0	70039	77.01	-1
0	70130	77.11	-1
0	70221	77.21	-1
0	70312	77.31	-1
0	70403	77.41	-1
0	70494	77.51	-1
0	70585	77.61	-1
0	70676	77.71	-1
0	70767	77.81	-1
0	70858	77.91	-1
0	70952	78.01	-1
0	71043	78.11	-1
0	71134	78.21	-1
0	71225	78.31	-1
0	71316	78.41	-1
0	71407	78.51	-1
0	71498	78.61	-1
0	71589	78.71	-1
0	71680	78.81	-1
0	71771	78.91	-1
0	71865	79.01	-1
0	71956	79.11	-1
0	72047	79.21	-1
0	72138	79.31	-1
0	72229	79.41	-1
0	72320	79.51	-1
0	72411	79.61	-1
0	72502	79.71	-1
0	72593	79.81	-1
0	72684	79.91	-1
0	72778	80.01	-1
0	72869	80.11	-1
0	72960	80.21	-1
0	73051	80.31	-1
0	73142	80.41	-1
0	73233	80.51	-1
0	73324	80.61	-1
0	73415	80.71	-1
0	73506	80.81	-1
0	73597	80.91	-1
0	73691	81.01	-1
0	73782	81.11	-1
0	73873	81.21	-1
0	73964	81.31	-1
0	74055	81.41	-1
0	74146	81.51	-1
0	74237	81.61	-1
0	74328	81.71	-1
0	74419	81.81	-1
0	74510	81.91	-1
0	74604	82.01	-1
0	74695	82.11	-1
0	74786	82.21	-1
0	74877	82.31	-1
0	74968	82.41	-1
0	75059	82.51	-1
0	75150	82.61	-1
0	75241	82.71	-1
0	75332	82.81	-1
0	75423	82.91	-1
0	75517	83.01	-1
0	75608	83.11	-1
0	75699	83.21	-1
0	75790	83.31	-1
0	75881	83.41	-1
0	75972	83.51	32.561
0	76063	83.61	32.6503
0	76154	83.71	32.7404
0	76245	83.81	32.8319
0	76336	83.91	32.9249
0	76430	84.01	33.0196
0	76521	84.11	33.1161
0	76612	84.21	33.2146
0	76703	84.31	33.3149
0	76794	84.41	33.417
0	76885	84.51	33.5209
0	76976	84.61	33.6263
0	77067	84.71	33.7333
0	77158	84.81	33.8416
0	77249	84.91	33.951
0	77343	85.01	34.0614
0	77434	85.11	34.1726
0	77525	85.21	34.2845
0	77616	85.31	34.3968
0	77707	85.41	34.5095
0	77798	85.51	34.6223
0	77889	85.61	34.7351
0	77980	85.71	34.8478
0	78071	85.81	34.9602
0	78162	85.91	35.0722
0	78256	86.01	35.1838
0	78347	86.11	35.2948
0	78438	86.21	35.4051
0	78529	86.31	35.5146
0	78620	86.41	35.6234
0	78711	86.51	35.7313
0	78802	86.61	35.8383
0	78893	86.71	35.9443
0	78984	86.81	36.0493
0	79075	86.91	36.1534
0	79169	87.01	36.2564
0	79260	87.11	36.3583
0	79351	87.21	36.4592
0	79442	87.31	36.559
0	79533	87.41	36.6578
0	79624	87.51	36.7555
0	79715	87.61	36.8522
0	79806	87.71	36.9479
0	79897	87.81	37.0427
0	79988	87.91	37.1366
0	80082	88.01	37.2297
0	80173	88.11	37.3221
0	80264	88.21	37.4139
0	80355	88.31	37.505
0	80446	88.41	37.5956
0	80537	88.51	37.6858
0	80628	88.61	37.7755
0	80719	88.71	37.8649
0	80810	88.81	37.954
0	80901	88.91	38.0429
0	80995	89.01	38.1316
0	81086	89.11	38.2201
0	81177	89.21	38.3084
0	81268	89.31	38.3967
0	81359	89.41	38.4849
0	81450	89.51	38.5731
0	81541	89.61	38.6613
0	81632	89.71	38.7494
0	81723	89.81	38.8376
0	81814	89.91	38.9258
0	81908	90.01	39.014
0	81999	90.11	39.1022
0	82090	90.21	39.1905
0	82181	90.31	39.2789
0	82272	90.41	39.3672
0	82363	90.51	39.4557
0	82454	90.61	39.5442
0	82545	90.71	39.6327
0	82636	90.81	39.7212
0	82727	90.91	39.8099
0	82821	91.01	39.8985
0	82912	91.11	39.9872
0	83003	91.21	40.0759
0	83094	91.31	40.1647
0	83185	91.41	40.2534
0	83276	91.51	40.3422
0	83367	91.61	40.4311
0	83458	91.71	40.5199
0	83549	91.81	40.6088
0	83640	91.91	40.6977
0	83734	92.01	40.7865
0	83825	92.11	40.8754
0	83916	92.21	40.9643
0	84007	92.31	41.0533
0	84098	92.41	41.1422
0	84189	92.51	41.2311
0	84280	92.61	41.32
0	84371	92.71	41.4089
0	84462	92.81	41.4979
0	84553	92.91	41.5868
0	84647	93.01	41.6757
0	84738	93.11	41.7646
0	84829	93.21	41.8535
0	84920	93.31	41.9425
0	85011	93.41	42.0314
0	85102	93.51	42.1203
0	85193	93.61	42.2092
0	85284	93.71	42.2981
0	85375	93.81	42.387
0	85466	93.91	42.4759
0	85560	94.01	42.5648
0	85651	94.11	42.6537
0	85742	94.21	42.7426
0	85833	94.31	42.8315
0	85924	94.41	42.9204
0	86015	94.51	43.0093
0	86106	94.61	43.0982
0	86197	94.71	43.1871
0	86288	94.81	43.276
0	86379	94.91	43.3649
0	86473	95.01	43.4538
0	86564	95.11	43.5427
0	86655	95.21	43.6316
0	86746	95.31	43.7204
0	86837	95.41	43.8093
0	86928	95.51	43.8982
0	87019	95.61	43.9871
0	87110	95.71	44.076
0	87201	95.81	44.1649
0	87292	95.91	44.2538
0	87386	96.01	44.3427
0	87477	96.11	44.4316
0	87568	96.21	44.5204
0	87659	96.31	44.6093
0	87750	96.41	44.6982
0	87841	96.51	44.7871
0	87932	96.61	44.876
0	88023	96.71	44.9649
0	88114	96.81	45.0538
0	88205	96.91	45.1427
0	88299	97.01	45.2316
0	88390	97.11	45.3204
0	88481	97.21	45.4093
0	88572	97.31	45.4982
0	88663	97.41	45.5871
0	88754	97.51	45.676
0	88845	97.61	45.7649
0	88936	97.71	45.8538
0	89027	97.81	45.9427
0	89118	97.91	46.0316
0	89212	98.01	46.1205
0	89303	98.11	46.2093
0	89394	98.21	46.2982
0	89485	98.31	46.3871
0	89576	98.41	46.476
0	89667	98.51	46.5649
0	89758	98.61	46.6538
0	89849	98.71	46.7427
0	89940	98.81	46.8316
0	90031	98.91	46.9205
0	90125	99.01	47.0094
0	90216	99.11	47.0982
0	90307	99.21	47.1871
0	90398	99.31	47.276
0	90489	99.41	47.3649
0	90580	99.51	47.4538
0	90671	99.61	47.5427
0	90762	99.71	47.6316
0	90853	99.81	47.7205
0	90944	99.91	47.8094
1	113	1.11	0
1	204	1.21	0
1	295	1.31	0
1	386	1.41	0
1	477	1.51	0
1	568	1.61	0
1	659	1.71	0
1	750	1.81	0
1	841	1.91	0
1	935	2.01	0
1	1026	2.11	0
1	1117	2.21	0
1	1208	2.31	0
1	1299	2.41	0
1	1390	2.51	0
1	1481	2.61	0
1	1572	2.71	0
1	1663	2.81	0
1	1754	2.91	0
1	1848	3.01	0
1	1939	3.11	0
1	2030	3.21	0
1	2121	3.31	0
1	2212	3.41	0
1	2303	3.51	0
1	2394	3.61	0
1	2485	3.71	0
1	2576	3.81	0
1	2667	3.91	0
1	2761	4.01	0
1	2852	4.11	0
1	2943	4.21	0
1	3034	4.31	0
1	3125	4.41	0
1	3216	4.51	0
1	3307	4.61	0
1	3398	4.71	0
1	3489	4.81	0
1	3580	4.91	0
1	3674	5.01	0
1	3765	5.11	0
1	3856	5.21	0
1	3947	5.31	0
1	4038	5.41	0
1	4129	5.51	0
1	4220	5.61	0
1	4311	5.71	0
1	4402	5.81	0
1	4493	5.91	0
1	4587	6.01	0
1	4678	6.11	0
1	4769	6.21	0
1	4860	6.31	0
1	4951	6.41	0
1	5042	6.51	0
1	5133	6.61	0
1	5224	6.71	0
1	5315	6.81	0
1	5406	6.91	0
1	5500	7.01	0
1	5591	7.11	0
1	5682	7.21	0
1	5773	7.31	0
1	5864	7.41	0
1	5955	7.51	0
1	6046	7.61	0
1	6137	7.71	0
1	6228	7.81	0
1	6319	7.91	0
1	6413	8.01	0
1	6504	8.11	0
1	6595	8.21	0
1	6686	8.31	0
1	6777	8.41	0
1	6868	8.51	0
1	6959	8.61	0
1	7050	8.71	0
1	7141	8.81	0
1	7232	8.91	0
1	7326	9.01	0
1	7417	9.11	0
1	7508	9.21	0
1	7599	9.31	0
1	7690	9.41	0
1	7781	9.51	0
1	7872	9.61	0
1	7963	9.71	0
1	8054	9.81	0
1	8145	9.91	0
1	8268	10.01	0
1	8361	10.11	0
1	8454	10.21	0
1	8547	10.31	0
1	8640	10.41	0
1	8733	10.51	0
1	8826	10.61	0
1	8919	10.71	0
1	9012	10.81	0
1	9105	10.91	0
1	9201	11.01	0
1	9294	11.11	0
1	9387	11.21	0
1	9480	11.31	0
1	9573	11.41	0
1	9666	11.51	0
1	9759	11.61	0
1	9852	11.71	0
1	9945	11.81	0
1	10038	11.91	0
1	10134	12.01	0
1	10227	12.11	0
1	10320	12.21	0
1	10413	12.31	0
1	10506	12.41	0
1	10599	12.51	0
1	10692	12.61	0
1	10785	12.71	0
1	10878	12.81	0
1	10971	12.91	0
1	11067	13.01	0
1	11160	13.11	0
1	11253	13.21	0
1	11346	13.31	0
1	11439	13.41	0
1	11532	13.51	0
1	11625	13.61	0
1	11718	13.71	0
1	11811	13.81	0
1	11904	13.91	0
1	12000	14.01	0
1	12093	14.11	0
1	12186	14.21	0
1	12279	14.31	0
1	12372	14.41	0
1	12465	14.51	0
1	12558	14.61	0
1	12651	14.71	0
1	12744	14.81	0
1	12837	14.91	0
1	12933	15.01	0
1	13026	15.11	0
1	13119	15.21	0
1	13212	15.31	0
1	13305	15.41	0
1	13398	15.51	0
1	13491	15.61	0
1	13584	15.71	0
1	13677	15.81	0
1	13770	15.91	0
1	13866	16.01	0
1	13959	16.11	0
1	14052	16.21	0
1	14145	16.31	0
1	14238	16.41	0
1	14331	16.51	0
1	14424	16.61	0
1	14517	16.71	0
1	14610	16.81	0
1	14703	16.91	0
1	14799	17.01	0
1	14892	17.11	0
1	14985	17.21	0
1	15078	17.31	0
1	15171	17.41	0
1	15264	17.51	0
1	15357	17.61	0
1	15450	17.71	0
1	15543	17.81	0
1	15636	17.91	0
1	15732	18.01	0
1	15825	18.11	0
1	15918	18.21	0
1	16011	18.31	0
1	16104	18.41	0
1	16197	18.51	0
1	16290	18.61	0
1	16383	18.71	0
1	16476	18.81	0
1	16569	18.91	0
1	16665	19.01	0
1	16758	19.11	0
1	16851	19.21	0
1	16944	19.31	0
1	17037	19.41	0
1	17130	19.51	0
1	17223	19.61	0
1	17316	19.71	0
1	17409	19.81	0
1	17502	19.91	0
1	17598	20.01	0
1	17691	20.11	0
1	17784	20.21	0
1	17877	20.31	0
1	17970	20.41	0
1	18063	20.51	0
1	18156	20.61	0
1	18249	20.71	0
1	18342	20.81	0
1	18435	20.91	0
1	18531	21.01	0
1	18624	21.11	0
1	18717	21.21	0
1	18810	21.31	0
1	18903	21.41	0
1	18996	21.51	0
1	19089	21.61	0
1	19182	21.71	0
1	19275	21.81	0
1	19368	21.91	0
1	19464	22.01	0
1	19557	22.11	0
1	19650	22.21	0
1	19743	22.31	0
1	19836	22.41	0
1	19929	22.51	0
1	20022	22.61	0
1	20115	22.71	0
1	20208	22.81	0
1	20301	22.91	0
1	20397	23.01	0
1	20490	23.11	0
1	20583	23.21	0
1	20676	23.31	0
1	20769	23.41	0
1	20862	23.51	0
1	20955	23.61	0
1	21048	23.71	0
1	21141	23.81	0
1	21234	23.91	0
1	21330	24.01	0
1	21423	24.11	0
1	21516	24.21	0
1	21609	24.31	0
1	21702	24.41	0
1	21795	24.51	0
1	21888	24.61	0
1	21981	24.71	0
1	22074	24.81	0
1	22167	24.91	0
1	22263	25.01	0
1	22356	25.11	0
1	22449	25.21	0
1	22542	25.31	0
1	22635	25.41	0
1	22728	25.51	0
1	22821	25.61	0
1	22914	25.71	0
1	23007	25.81	0
1	23100	25.91	0
1	23196	26.01	0
1	23289	26.11	0
1	23382	26.21	0
1	23475	26.31	0
1	23568	26.41	0
1	23661	26.51	0
1	23754	26.61	0
1	23847	26.71	0
1	23940	26.81	0
1	24033	26.91	0
1	24129	27.01	0
1	24222	27.11	0
1	24315	27.21	0
1	24408	27.31	0
1	24501	27.41	0
1	24594	27.51	0
1	24687	27.61	0
1	24780	27.71	0
1	24873	27.81	0
1	24966	27.91	0
1	25062	28.01	0
1	25155	28.11	0
1	25248	28.21	0
1	25341	28.31	0
1	25434	28.41	0
1	25527	28.51	0
1	25620	28.61	0
1	25713	28.71	0
1	25806	28.81	0
1	25899	28.91	0
1	25995	29.01	0
1	26088	29.11	0
1	26181	29.21	0
1	26317	29.31	0
1	26409	29.41	0
1	26501	29.51	0
1	26593	29.61	0
1	26685	29.71	0
1	26777	29.81	0
1	26869	29.91	0
1	26964	30.01	0
1	27056	30.11	0
1	27148	30.21	0
1	27240	30.31	0
1	27332	30.41	0
1	27424	30.51	0
1	27516	30.61	0
1	27608	30.71	0
1	27700	30.81	0
1	27792	30.91	0
1	27887	31.01	0
1	27979	31.11	0
1	28071	31.21	0
1	28163	31.31	0
1	28255	31.41	0
1	28347	31.51	0
1	28439	31.61	0
1	28531	31.71	0
1	28623	31.81	0
1	28715	31.91	0
1	28810	32.01	0
1	28902	32.11	0
1	28994	32.21	0
1	29086	32.31	0
1	29178	32.41	0
1	29270	32.51	0
1	29362	32.61	0
1	29454	32.71	0
1	29546	32.81	0
1	29638	32.91	0
1	29733	33.01	0
1	29825	33.11	0
1	29917	33.21	0
1	30009	33.31	0
1	30101	33.41	0
1	30322	33.51	0
1	30413	33.61	0
1	30504	33.71	0
1	30595	33.81	0
1	30686	33.91	0
1	30780	34.01	0
1	30871	34.11	0
1	30962	34.21	0
1	31053	34.31	0
1	31144	34.41	0
1	31235	34.51	0
1	31326	34.61	0
1	31417	34.71	0
1	31508	34.81	0
1	31599	34.91	0
1	31693	35.01	0
1	31784	35.11	0
1	31875	35.21	0
1	31966	35.31	0
1	32057	35.41	0
1	32148	35.51	0
1	32239	35.61	0
1	32330	35.71	0
1	32421	35.81	0
1	32512	35.91	0
1	32606	36.01	0
1	32697	36.11	0
1	32788	36.21	0
1	32879	36.31	0
1	32970	36.41	0
1	33061	36.51	0
1	33152	36.61	0
1	33243	36.71	0
1	33334	36.81	0
1	33425	36.91	0
1	33519	37.01	0
1	33610	37.11	0
1	33701	37.21	0
1	33792	37.31	0
1	33883	37.41	0
1	33974	37.51	0
1	34065	37.61	0
1	34156	37.71	0
1	34247	37.81	0
1	34338	37.91	0
1	34432	38.01	0
1	34523	38.11	0
1	34614	38.21	0
1	34705	38.31	0
1	34796	38.41	0
1	34887	38.51	0
1	34978	38.61	0
1	35069	38.71	0
1	35160	38.81	0
1	35251	38.91	0
1	35345	39.01	0
1	35436	39.11	0
1	35527	39.21	0
1	35618	39.31	0
1	35709	39.41	0
1	35800	39.51	0
1	35891	39.61	0
1	35982	39.71	0
1	36073	39.81	0
1	36164	39.91	0
1	36258	40.01	0
1	36349	40.11	0
1	36440	40.21	0
1	36531	40.31	0
1	36622	40.41	0
1	36713	40.51	0
1	36804	40.61	0
1	36895	40.71	0
1	36986	40.81	0
1	37077	40.91	0
1	37171	41.01	0
1	37262	41.11	0
1	37353	41.21	0
1	37444	41.31	0
1	37535	41.41	0
1	37626	41.51	0
1	37717	41.61	0
1	37808	41.71	0
1	37899	41.81	0
1	37990	41.91	0
1	38084	42.01	0
1	38175	42.11	0
1	38266	42.21	0
1	38357	42.31	0
1	38448	42.41	0
1	38539	42.51	0
1	38630	42.61	0
1	38721	42.71	0
1	38812	42.81	0
1	38903	42.91	0
1	38997	43.01	0
1	39088	43.11	0
1	39179	43.21	0
1	39270	43.31	0
1	39361	43.41	0
1	39452	43.51	0
1	39543	43.61	0
1	39634	43.71	0
1	39725	43.81	0
1	39816	43.91	0
1	39910	44.01	0
1	40001	44.11	0
1	40092	44.21	0
1	40183	44.31	0
1	40274	44.41	0
1	40365	44.51	0
1	40456	44.61	0
1	40547	44.71	0
1	40638	44.81	0
1	40729	44.91	0
1	40823	45.01	0
1	40914	45.11	0
1	41005	45.21	0
1	41096	45.31	0
1	41187	45.41	0
1	41278	45.51	0
1	41369	45.61	0
1	41460	45.71	0
1	41551	45.81	0
1	41642	45.91	0
1	41736	46.01	0
1	41827	46.11	0
1	41918	46.21	0
1	42009	46.31	0
1	42100	46.41	0
1	42191	46.51	0
1	42282	46.61	0
1	42373	46.71	0
1	42464	46.81	0
1	42555	46.91	0
1	42649	47.01	0
1	42740	47.11	0
1	42831	47.21	0
1	42922	47.31	0
1	43013	47.41	0
1	43104	47.51	0
1	43195	47.61	0
1	43286	47.71	0
1	43377	47.81	0
1	43468	47.91	0
1	43562	48.01	0
1	43653	48.11	0
1	43744	48.21	0
1	43835	48.31	0
1	43926	48.41	0
1	44017	48.51	0
1	44108	48.61	0
1	44199	48.71	0
1	44290	48.81	0
1	44381	48.91	0
1	44475	49.01	0
1	44566	49.11	0
1	44657	49.21	0
1	44748	49.31	0
1	44839	49.41	0
1	44930	49.51	0
1	45021	49.61	0
1	45112	49.71	0
1	45203	49.81	0
1	45294	49.91	0
1	45388	50.01	0
1	45479	50.11	0
1	45570	50.21	0
1	45661	50.31	0
1	45752	50.41	0
1	45843	50.51	0
1	45934	50.61	0
1	46025	50.71	0
1	46116	50.81	0
1	46207	50.91	0
1	46301	51.01	0
1	46392	51.11	0
1	46483	51.21	0
1	46574	51.31	0
1	46665	51.41	0
1	46756	51.51	0
1	46847	51.61	0
1	46938	51.71	0
1	47029	51.81	0
1	47120	51.91	0
1	47214	52.01	0
1	47305	52.11	0
1	47396	52.21	0
1	47487	52.31	0
1	47578	52.41	0
1	47669	52.51	0
1	47760	52.61	0
1	47851	52.71	0
1	47942	52.81	0
1	48033	52.91	0
1	48127	53.01	0
1	48218	53.11	0
1	48309	53.21	0
1	48400	53.31	0
1	48491	53.41	0
1	48582	53.51	0
1	48673	53.61	0
1	48764	53.71	0
1	48855	53.81	0
1	48946	53.91	0
1	49040	54.01	0
1	49131	54.11	0
1	49222	54.21	0
1	49313	54.31	0
1	49404	54.41	0
1	49495	54.51	0
1	49586	54.61	0
1	49677	54.71	0
1	49768	54.81	0
1	49859	54.91	0
1	49953	55.01	0
1	50044	55.11	0
1	50135	55.21	0
1	50226	55.31	0
1	50317	55.41	0
1	50408	55.51	0
1	50499	55.61	0
1	50590	55.71	0
1	50681	55.81	0
1	50772	55.91	0
1	50866	56.01	0
1	50957	56.11	0
1	51048	56.21	0
1	51139	56.31	0
1	51230	56.41	0
1	51321	56.51	0
1	51412	56.61	0
1	51503	56.71	0
1	51594	56.81	0
1	51685	56.91	0
1	51779	57.01	0
1	51870	57.11	0
1	51961	57.21	0
1	52052	57.31	0
1	52143	57.41	0
1	52234	57.51	0
1	52325	57.61	0
1	52416	57.71	0
1	52507	57.81	0
1	52598	57.91	0
1	52692	58.01	0
1	52783	58.11	0
1	52874	58.21	0
1	52965	58.31	0
1	53056	58.41	0
1	53147	58.51	0
1	53238	58.61	0
1	53329	58.71	0
1	53420	58.81	0
1	53511	58.91	0
1	53605	59.01	0
1	53696	59.11	0
1	53787	59.21	0
1	53878	59.31	0
1	53969	59.41	0
1	54060	59.51	0
1	54151	59.61	0
1	54242	59.71	0
1	54333	59.81	0
1	54424	59.91	0
1	54518	60.01	0
1	54609	60.11	0
1	54700	60.21	0
1	54791	60.31	0
1	54882	60.41	0
1	54973	60.51	0
1	55064	60.61	0
1	55155	60.71	0
1	55246	60.81	0
1	55337	60.91	0
1	55431	61.01	0
1	55522	61.11	0
1	55613	61.21	0
1	55704	61.31	0
1	55795	61.41	0
1	55886	61.51	0
1	55977	61.61	0
1	56068	61.71	0
1	56159	61.81	0
1	56250	61.91	0
1	56344	62.01	0
1	56435	62.11	0
1	56526	62.21	0
1	56617	62.31	0
1	56708	62.41	0
1	56799	62.51	0
1	56890	62.61	0
1	56981	62.71	0
1	57072	62.81	0
1	57163	62.91	0
1	57257	63.01	0
1	57348	63.11	0
1	57439	63.21	0
1	57530	63.31	0
1	57621	63.41	0
1	57712	63.51	0
1	57803	63.61	0
1	57894	63.71	0
1	57985	63.81	0
1	58076	63.91	0
1	58170	64.01	0
1	58261	64.11	0
1	58352	64.21	0
1	58443	64.31	0
1	58534	64.41	0
1	58625	64.51	0
1	58716	64.61	0
1	58807	64.71	0
1	58898	64.81	0
1	58989	64.91	0
1	59083	65.01	0
1	59174	65.11	0
1	59265	65.21	0
1	59356	65.31	0
1	59447	65.41	0
1	59538	65.51	0
1	59629	65.61	0
1	59720	65.71	0
1	59811	65.81	0
1	59902	65.91	0
1	59996	66.01	0
1	60087	66.11	0
1	60178	66.21	0
1	60269	66.31	0
1	60360	66.41	0
1	60451	66.51	0
1	60542	66.61	0
1	60633	66.71	0
1	60724	66.81	0
1	60815	66.91	0
1	60909	67.01	0
1	61000	67.11	0
1	61091	67.21	0
1	61182	67.31	0
1	61273	67.41	0
1	61364	67.51	0
1	61455	67.61	0
1	61546	67.71	0
1	61637	67.81	0
1	61728	67.91	0
1	61822	68.01	0
1	61913	68.11	0
1	62004	68.21	0
1	62095	68.31	0
1	62186	68.41	0
1	62277	68.51	0
1	62368	68.61	0
1	62459	68.71	0
1	62550	68.81	0
1	62641	68.91	0
1	62735	69.01	0
1	62826	69.11	0
1	62917	69.21	0
1	63008	69.31	0
1	63099	69.41	0
1	63190	69.51	0
1	63281	69.61	0
1	63372	69.71	0
1	63463	69.81	0
1	63554	69.91	0
1	63648	70.01	0
1	63739	70.11	0
1	63830	70.21	0
1	63921	70.31	0
1	64012	70.41	0
1	64103	70.51	0
1	64194	70.61	0
1	64285	70.71	0
1	64376	70.81	0
1	64467	70.91	0
1	64561	71.01	0
1	64652	71.11	0
1	64743	71.21	0
1	64834	71.31	0
1	64925	71.41	0
1	65016	71.51	0
1	65107	71.61	0
1	65198	71.71	0
1	65289	71.81	0
1	65380	71.91	0
1	65474	72.01	0
1	65565	72.11	0
1	65656	72.21	0
1	65747	72.31	0
1	65838	72.41	0
1	65929	72.51	0
1	66020	72.61	0
1	66111	72.71	0
1	66202	72.81	0
1	66293	72.91	0
1	66387	73.01	0
1	66478	73.11	0
1	66569	73.21	0
1	66660	73.31	0
1	66751	73.41	0
1	66842	73.51	0
1	66933	73.61	0
1	67024	73.71	0
1	67115	73.81	0
1	67206	73.91	0
1	67300	74.01	0
1	67391	74.11	0
1	67482	74.21	0
1	67573	74.31	0
1	67664	74.41	0
1	67755	74.51	0
1	67846	74.61	0
1	67937	74.71	0
1	68028	74.81	0
1	68119	74.91	0
1	68213	75.01	0
1	68304	75.11	0
1	68395	75.21	0
1	68486	75.31	0
1	68577	75.41	0
1	68668	75.51	0
1	68759	75.61	0
1	68850	75.71	0
1	68941	75.81	0
1	69032	75.91	0
1	69126	76.01	0
1	69217	76.11	0
1	69308	76.21	0
1	69399	76.31	0
1	69490	76.41	0
1	69581	76.51	0
1	69672	76.61	0
1	69763	76.71	0
1	69854	76.81	0
1	69945	76.91	0
1	70039	77.01	0
1	70130	77.11	0
1	70221	77.21	0
1	70312	77.31	0
1	70403	77.41	0
1	70494	77.51	0
1	70585	77.61	0
1	70676	77.71	0
1	70767	77.81	0
1	70858	77.91	0
1	70952	78.01	0
1	71043	78.11	0
1	71134	78.21	0
1	71225	78.31	0
1	71316	78.41	0
1	71407	78.51	0
1	71498	78.61	0
1	71589	78.71	0
1	71680	78.81	0
1	71771	78.91	0
1	71865	79.01	0
1	71956	79.11	0
1	72047	79.21	0
1	72138	79.31	0
1	72229	79.41	0
1	72320	79.51	0
1	72411	79.61	0
1	72502	79.71	0
1	72593	79.81	0
1	72684	79.91	0
1	72778	80.01	0
1	72869	80.11	0
1	72960	80.21	0
1	73051	80.31	0
1	73142	80.41	0
1	73233	80.51	0
1	73324	80.61	0
1	73415	80.71	0
1	73506	80.81	0
1	73597	80.91	0
1	73691	81.01	0
1	73782	81.11	0
1	73873	81.21	0
1	73964	81.31	0
1	74055	81.41	0
1	74146	81.51	0
1	74237	81.61	0
1	74328	81.71	0
1	74419	81.81	0
1	74510	81.91	0
1	74604	82.01	0
1	74695	82.11	0
1	74786	82.21	0
1	74877	82.31	0
1	74968	82.41	0
1	75059	82.51	0
1	75150	82.61	0
1	75241	82.71	0
1	75332	82.81	0
1	75423	82.91	0
1	75517	83.01	0
1	75608	83.11	0
1	75699	83.21	0
1	75790	83.31	0
1	75881	83.41	0
1	75972	83.51	0.890202
1	76063	83.61	0.896722
1	76154	83.71	0.907609
1	76245	83.81	0.921762
1	76336	83.91	0.938219
1	76430	84.01	0.956152
1	76521	84.11	0.974854
1	76612	84.21	0.99373
1	76703	84.31	1.01229
1	76794	84.41	1.03012
1	76885	84.51	1.0469
1	76976	84.61	1.06239
1	77067	84.71	1.07641
1	77158	84.81	1.08882
1	77249	84.91	1.09953
1	77343	85.01	1.10853
1	77434	85.11	1.11578
1	77525	85.21	1.12133
1	77616	85.31	1.12522
1	77707	85.41	1.12751
1	77798	85.51	1.12828
1	77889	85.61	1.12763
1	77980	85.71	1.12565
1	78071	85.81	1.12244
1	78162	85.91	1.11812
1	78256	86.01	1.11279
1	78347	86.11	1.10654
1	78438	86.21	1.09949
1	78529	86.31	1.09173
1	78620	86.41	1.08336
1	78711	86.51	1.07446
1	78802	86.61	1.06512
1	78893	86.71	1.0554
1	78984	86.81	1.04539
1	79075	86.91	1.03515
1	79169	87.01	1.02473
1	79260	87.11	1.01419
1	79351	87.21	1.00357
1	79442	87.31	0.992911
1	79533	87.41	0.982313
1	79624	87.51	0.971943
1	79715	87.61	0.961947
1	79806	87.71	0.952436
1	79897	87.81	0.943495
1	79988	87.91	0.93518
1	80082	88.01	0.92753
1	80173	88.11	0.92056
1	80264	88.21	0.914275
1	80355	88.31	0.908664
1	80446	88.41	0.903707
1	80537	88.51	0.899375
1	80628	88.61	0.895633
1	80719	88.71	0.892442
1	80810	88.81	0.889761
1	80901	88.91	0.887547
1	80995	89.01	0.885754
1	81086	89.11	0.88434
1	81177	89.21	0.883262
1	81268	89.31	0.882478
1	81359	89.41	0.881951
1	81450	89.51	0.881643
1	81541	89.61	0.88152
1	81632	89.71	0.881552
1	81723	89.81	0.88171
1	81814	89.91	0.881968
1	81908	90.01	0.882305
1	81999	90.11	0.882699
1	82090	90.21	0.883134
1	82181	90.31	0.883594
1	82272	90.41	0.884066
1	82363	90.51	0.88454
1	82454	90.61	0.885008
1	82545	90.71	0.885461
1	82636	90.81	0.885894
1	82727	90.91	0.886304
1	82821	91.01	0.886686
1	82912	91.11	0.88704
1	83003	91.21	0.887363
1	83094	91.31	0.887656
1	83185	91.41	0.887918
1	83276	91.51	0.888151
1	83367	91.61	0.888356
1	83458	91.71	0.888533
1	83549	91.81	0.888686
1	83640	91.91	0.888814
1	83734	92.01	0.888922
1	83825	92.11	0.889009
1	83916	92.21	0.889079
1	84007	92.31	0.889133
1	84098	92.41	0.889173
1	84189	92.51	0.889201
1	84280	92.61	0.889219
1	84371	92.71	0.889228
1	84462	92.81	0.889229
1	84553	92.91	0.889224
1	84647	93.01	0.889214
1	84738	93.11	0.889201
1	84829	93.21	0.889184
1	84920	93.31	0.889165
1	85011	93.41	0.889145
1	85102	93.51	0.889124
1	85193	93.61	0.889103
1	85284	93.71	0.889082
1	85375	93.81	0.889062
1	85466	93.91	0.889042
1	85560	94.01	0.889023
1	85651	94.11	0.889006
1	85742	94.21	0.888989
1	85833	94.31	0.888974
1	85924	94.41	0.888961
1	86015	94.51	0.888948
1	86106	94.61	0.888938
1	86197	94.71	0.888928
1	86288	94.81	0.888919
1	86379	94.91	0.888912
1	86473	95.01	0.888906
1	86564	95.11	0.888901
1	86655	95.21	0.888897
1	86746	95.31	0.888893
1	86837	95.41	0.888891
1	86928	95.51	0.888889
1	87019	95.61	0.888887
1	87110	95.71	0.888886
1	87201	95.81	0.888886
1	87292	95.91	0.888885
1	87386	96.01	0.888885
1	87477	96.11	0.888886
1	87568	96.21	0.888886
1	87659	96.31	0.888887
1	87750	96.41	0.888888
1	87841	96.51	0.888889
1	87932	96.61	0.88889
1	88023	96.71	0.888891
1	88114	96.81	0.888891
1	88205	96.91	0.888892
1	88299	97.01	0.888893
1	88390	97.11	0.888894
1	88481	97.21	0.888895
1	88572	97.31	0.888896
1	88663	97.41	0.888896
1	88754	97.51	0.888897
1	88845	97.61	0.888898
1	88936	97.71	0.888898
1	89027	97.81	0.888899
1	89118	97.91	0.888899
1	89212	98.01	0.888899
1	89303	98.11	0.8889
1	89394	98.21	0.8889
1	89485	98.31	0.8889
1	89576	98.41	0.8889
1	89667	98.51	0.8889
1	89758	98.61	0.8889
1	89849	98.71	0.888901
1	89940	98.81	0.888901
1	90031	98.91	0.888901
1	90125	99.01	0.888901
1	90216	99.11	0.888901
1	90307	99.21	0.888901
1	90398	99.31	0.888901
1	90489	99.41	0.888901
1	90580	99.51	0.888901
1	90671	99.61	0.888901
1	90762	99.71	0.8889
1	90853	99.81	0.8889
1	90944	99.91	0.8889
2	113	1.11	0
2	204	1.21	0
2	295	1.31	0
2	386	1.41	0
2	477	1.51	0
2	568	1.61	0
2	659	1.71	0
2	750	1.81	0
2	841	1.91	0
2	935	2.01	0
2	1026	2.11	0
2	1117	2.21	0
2	1208	2.31	0
2	1299	2.41	0
2	1390	2.51	0
2	1481	2.61	0
2	1572	2.71	0
2	1663	2.81	0
2	1754	2.91	0
2	1848	3.01	0
2	1939	3.11	0
2	2030	3.21	0
2	2121	3.31	0
2	2212	3.41	0
2	2303	3.51	0
2	2394	3.61	0
2	2485	3.71	0
2	2576	3.81	0
2	2667	3.91	0
2	2761	4.01	0
2	2852	4.11	0
2	2943	4.21	0
2	3034	4.31	0
2	3125	4.41	0
2	3216	4.51	0
2	3307	4.61	0
2	3398	4.71	0
2	3489	4.81	0
2	3580	4.91	0
2	3674	5.01	0
2	3765	5.11	0
2	3856	5.21	0
2	3947	5.31	0
2	4038	5.41	0
2	4129	5.51	0
2	4220	5.61	0
2	4311	5.71	0
2	4402	5.81	0
2	4493	5.91	0
2	4587	6.01	0
2	4678	6.11	0
2	4769	6.21	0
2	4860	6.31	0
2	4951	6.41	0
2	5042	6.51	0
2	5133	6.61	0
2	5224	6.71	0
2	5315	6.81	0
2	5406	6.91	0
2	5500	7.01	0
2	5591	7.11	0
2	5682	7.21	0
2	5773	7.31	0
2	5864	7.41	0
2	5955	7.51	0
2	6046	7.61	0
2	6137	7.71	0
2	6228	7.81	0
2	6319	7.91	0
2	6413	8.01	0
2	6504	8.11	0
2	6595	8.21	0
2	6686	8.31	0
2	6777	8.41	0
2	6868	8.51	0
2	6959	8.61	0
2	7050	8.71	0
2	7141	8.81	0
2	7232	8.91	0
2	7326	9.01	0
2	7417	9.11	0
2	7508	9.21	0
2	7599	9.31	0
2	7690	9.41	0
2	7781	9.51	0
2	7872	9.61	0
2	7963	9.71	0
2	8054	9.81	0
2	8145	9.91	0
2	8268	10.01	0
2	8361	10.11	0
2	8454	10.21	0
2	8547	10.31	0
2	8640	10.41	0
2	8733	10.51	0
2	8826	10.61	0
2	8919	10.71	0
2	9012	10.81	0
2	9105	10.91	0
2	9201	11.01	0
2	9294	11.11	0
2	9387	11.21	0
2	9480	11.31	0
2	9573	11.41	0
2	9666	11.51	0
2	9759	11.61	0
2	9852	11.71	0
2	9945	11.81	0
2	10038	11.91	0
2	10134	12.01	0
2	10227	12.11	0
2	10320	12.21	0
2	10413	12.31	0
2	10506	12.41	0
2	10599	12.51	0
2	10692	12.61	0
2	10785	12.71	0
2	10878	12.81	0
2	10971	12.91	0
2	11067	13.01	0
2	11160	13.11	0
2	11253	13.21	0
2	11346	13.31	0
2	11439	13.41	0
2	11532	13.51	0
2	11625	13.61	0
2	11718	13.71	0
2	11811	13.81	0
2	11904	13.91	0
2	12000	14.01	0
2	12093	14.11	0
2	12186	14.21	0
2	12279	14.31	0
2	12372	14.41	0
2	12465	14.51	0
2	12558	14.61	0
2	12651	14.71	0
2	12744	14.81	0
2	12837	14.91	0
2	12933	15.01	0
2	13026	15.11	0
2	13119	15.21	0
2	13212	15.31	0
2	13305	15.41	0
2	13398	15.51	0
2	13491	15.61	0
2	13584	15.71	0
2	13677	15.81	0
2	13770	15.91	0
2	13866	16.01	0
2	13959	16.11	0
2	14052	16.21	0
2	14145	16.31	0
2	14238	16.41	0
2	14331	16.51	0
2	14424	16.61	0
2	14517	16.71	0
2	14610	16.81	0
2	14703	16.91	0
2	14799	17.01	0
2	14892	17.11	0
2	14985	17.21	0
2	15078	17.31	0
2	15171	17.41	0
2	15264	17.51	0
2	15357	17.61	0
2	15450	17.71	0
2	15543	17.81	0
2	15636	17.91	0
2	15732	18.01	0
2	15825	18.11	0
2	15918	18.21	0
2	16011	18.31	0
2	16104	18.41	0
2	16197	18.51	0
2	16290	18.61	0
2	16383	18.71	0
2	16476	18.81	0
2	16569	18.91	0
2	16665	19.01	0
2	16758	19.11	0
2	16851	19.21	0
2	16944	19.31	0
2	17037	19.41	0
2	17130	19.51	0
2	17223	19.61	0
2	17316	19.71	0
2	17409	19.81	0
2	17502	19.91	0
2	17598	20.01	0
2	17691	20.11	0
2	17784	20.21	0
2	17877	20.31	0
2	17970	20.41	0
2	18063	20.51	0
2	18156	20.61	0
2	18249	20.71	0
2	18342	20.81	0
2	18435	20.91	0
2	18531	21.01	0
2	18624	21.11	0
2	18717	21.21	0
2	18810	21.31	0
2	18903	21.41	0
2	18996	21.51	0
2	19089	21.61	0
2	19182	21.71	0
2	19275	21.81	0
2	19368	21.91	0
2	19464	22.01	0
2	19557	22.11	0
2	19650	22.21	0
2	19743	22.31	0
2	19836	22.41	0
2	19929	22.51	0
2	20022	22.61	0
2	20115	22.71	0
2	20208	22.81	0
2	20301	22.91	0
2	20397	23.01	0
2	20490	23.11	0
2	20583	23.21	0
2	20676	23.31	0
2	20769	23.41	0
2	20862	23.51	0
2	20955	23.61	0
2	21048	23.71	0
2	21141	23.81	0
2	21234	23.91	0
2	21330	24.01	0
2	21423	24.11	0
2	21516	24.21	0
2	21609	24.31	0
2	21702	24.41	0
2	21795	24.51	0
2	21888	24.61	0
2	21981	24.71	0
2	22074	24.81	0
2	22167	24.91	0
2	22263	25.01	0
2	22356	25.11	0
2	22449	25.21	0
2	22542	25.31	0
2	22635	25.41	0
2	22728	25.51	0
2	22821	25.61	0
2	22914	25.71	0
2	23007	25.81	0
2	23100	25.91	0
2	23196	26.01	0
2	23289	26.11	0
2	23382	26.21	0
2	23475	26.31	0
2	23568	26.41	0
2	23661	26.51	0
2	23754	26.61	0
2	23847	26.71	0
2	23940	26.81	0
2	24033	26.91	0
2	24129	27.01	0
2	24222	27.11	0
2	24315	27.21	0
2	24408	27.31	0
2	24501	27.41	0
2	24594	27.51	0
2	24687	27.61	0
2	24780	27.71	0
2	24873	27.81	0
2	24966	27.91	0
2	25062	28.01	0
2	25155	28.11	0
2	25248	28.21	0
2	25341	28.31	0
2	25434	28.41	0
2	25527	28.51	0
2	25620	28.61	0
2	25713	28.71	0
2	25806	28.81	0
2	25899	28.91	0
2	25995	29.01	0
2	26088	29.11	0
2	26181	29.21	0
2	26317	29.31	0
2	26409	29.41	0
2	26501	29.51	0
2	26593	29.61	0
2	26685	29.71	0
2	26777	29.81	0
2	26869	29.91	0
2	26964	30.01	0
2	27056	30.11	0
2	27148	30.21	0
2	27240	30.31	0
2	27332	30.41	0
2	27424	30.51	0
2	27516	30.61	0
2	27608	30.71	0
2	27700	30.81	0
2	27792	30.91	0
2	27887	31.01	0
2	27979	31.11	0
2	28071	31.21	0
2	28163	31.31	0
2	28255	31.41	0
2	28347	31.51	0
2	28439	31.61	0
2	28531	31.71	0
2	28623	31.81	0
2	28715	31.91	0
2	28810	32.01	0
2	28902	32.11	0
2	28994	32.21	0
2	29086	32.31	0
2	29178	32.41	0
2	29270	32.51	0
2	29362	32.61	0
2	29454	32.71	0
2	29546	32.81	0
2	29638	32.91	0
2	29733	33.01	0
2	29825	33.11	0
2	29917	33.21	0
2	30009	33.31	0
2	30101	33.41	0
2	30322	33.51	0
2	30413	33.61	0
2	30504	33.71	0
2	30595	33.81	0
2	30686	33.91	0
2	30780	34.01	0
2	30871	34.11	0
2	30962	34.21	0
2	31053	34.31	0
2	31144	34.41	0
2	31235	34.51	0
2	31326	34.61	0
2	31417	34.71	0
2	31508	34.81	0
2	31599	34.91	0
2	31693	35.01	0
2	31784	35.11	0
2	31875	35.21	0
2	31966	35.31	0
2	32057	35.41	0
2	32148	35.51	0
2	32239	35.61	0
2	32330	35.71	0
2	32421	35.81	0
2	32512	35.91	0
2	32606	36.01	0
2	32697	36.11	0
2	32788	36.21	0
2	32879	36.31	0
2	32970	36.41	0
2	33061	36.51	0
2	33152	36.61	0
2	33243	36.71	0
2	33334	36.81	0
2	33425	36.91	0
2	33519	37.01	0
2	33610	37.11	0
2	33701	37.21	0
2	33792	37.31	0
2	33883	37.41	0
2	33974	37.51	0
2	34065	37.61	0
2	34156	37.71	0
2	34247	37.81	0
2	34338	37.91	0
2	34432	38.01	0
2	34523	38.11	0
2	34614	38.21	0
2	34705	38.31	0
2	34796	38.41	0
2	34887	38.51	0
2	34978	38.61	0
2	35069	38.71	0
2	35160	38.81	0
2	35251	38.91	0
2	35345	39.01	0
2	35436	39.11	0
2	35527	39.21	0
2	35618	39.31	0
2	35709	39.41	0
2	35800	39.51	0
2	35891	39.61	0
2	35982	39.71	0
2	36073	39.81	0
2	36164	39.91	0
2	36258	40.01	0
2	36349	40.11	0
2	36440	40.21	0
2	36531	40.31	0
2	36622	40.41	0
2	36713	40.51	0
2	36804	40.61	0
2	36895	40.71	0
2	36986	40.81	0
2	37077	40.91	0
2	37171	41.01	0
2	37262	41.11	0
2	37353	41.21	0
2	37444	41.31	0
2	37535	41.41	0
2	37626	41.51	0
2	37717	41.61	0
2	37808	41.71	0
2	37899	41.81	0
2	37990	41.91	0
2	38084	42.01	0
2	38175	42.11	0
2	38266	42.21	0
2	38357	42.31	0
2	38448	42.41	0
2	38539	42.51	0
2	38630	42.61	0
2	38721	42.71	0
2	38812	42.81	0
2	38903	42.91	0
2	38997	43.01	0
2	39088	43.11	0
2	39179	43.21	0
2	39270	43.31	0
2	39361	43.41	0
2	39452	43.51	0
2	39543	43.61	0
2	39634	43.71	0
2	39725	43.81	0
2	39816	43.91	0
2	39910	44.01	0
2	40001	44.11	0
2	40092	44.21	0
2	40183	44.31	0
2	40274	44.41	0
2	40365	44.51	0
2	40456	44.61	0
2	40547	44.71	0
2	40638	44.81	0
2	40729	44.91	0
2	40823	45.01	0
2	40914	45.11	0
2	41005	45.21	0
2	41096	45.31	0
2	41187	45.41	0
2	41278	45.51	0
2	41369	45.61	0
2	41460	45.71	0
2	41551	45.81	0
2	41642	45.91	0
2	41736	46.01	0
2	41827	46.11	0
2	41918	46.21	0
2	42009	46.31	0
2	42100	46.41	0
2	42191	46.51	0
2	42282	46.61	0
2	42373	46.71	0
2	42464	46.81	0
2	42555	46.91	0
2	42649	47.01	0
2	42740	47.11	0
2	42831	47.21	0
2	42922	47.31	0
2	43013	47.41	0
2	43104	47.51	0
2	43195	47.61	0
2	43286	47.71	0
2	43377	47.81	0
2	43468	47.91	0
2	43562	48.01	0
2	43653	48.11	0
2	43744	48.21	0
2	43835	48.31	0
2	43926	48.41	0
2	44017	48.51	0
2	44108	48.61	0
2	44199	48.71	0
2	44290	48.81	0
2	44381	48.91	0
2	44475	49.01	0
2	44566	49.11	0
2	44657	49.21	0
2	44748	49.31	0
2	44839	49.41	0
2	44930	49.51	0
2	45021	49.61	0
2	45112	49.71	0
2	45203	49.81	0
2	45294	49.91	0
2	45388	50.01	0
2	45479	50.11	0
2	45570	50.21	0
2	45661	50.31	0
2	45752	50.41	0
2	45843	50.51	0
2	45934	50.61	0
2	46025	50.71	0
2	46116	50.81	0
2	46207	50.91	0
2	46301	51.01	0
2	46392	51.11	0
2	46483	51.21	0
2	46574	51.31	0
2	46665	51.41	0
2	46756	51.51	0
2	46847	51.61	0
2	46938	51.71	0
2	47029	51.81	0
2	47120	51.91	0
2	47214	52.01	0
2	47305	52.11	0
2	47396	52.21	0
2	47487	52.31	0
2	47578	52.41	0
2	47669	52.51	0
2	47760	52.61	0
2	47851	52.71	0
2	47942	52.81	0
2	48033	52.91	0
2	48127	53.01	0
2	48218	53.11	0
2	48309	53.21	0
2	48400	53.31	0
2	48491	53.41	0
2	48582	53.51	0
2	48673	53.61	0
2	48764	53.71	0
2	48855	53.81	0
2	48946	53.91	0
2	49040	54.01	0
2	49131	54.11	0
2	49222	54.21	0
2	49313	54.31	0
2	49404	54.41	0
2	49495	54.51	0
2	49586	54.61	0
2	49677	54.71	0
2	49768	54.81	0
2	49859	54.91	0
2	49953	55.01	0
2	50044	55.11	0
2	50135	55.21	0
2	50226	55.31	0
2	50317	55.41	0
2	50408	55.51	0
2	50499	55.61	0
2	50590	55.71	0
2	50681	55.81	0
2	50772	55.91	0
2	50866	56.01	0
2	50957	56.11	0
2	51048	56.21	0
2	51139	56.31	0
2	51230	56.41	0
2	51321	56.51	0
2	51412	56.61	0
2	51503	56.71	0
2	51594	56.81	0
2	51685	56.91	0
2	51779	57.01	0
2	51870	57.11	0
2	51961	57.21	0
2	52052	57.31	0
2	52143	57.41	0
2	52234	57.51	0
2	52325	57.61	0
2	52416	57.71	0
2	52507	57.81	0
2	52598	57.91	0
2	52692	58.01	0
2	52783	58.11	0
2	52874	58.21	0
2	52965	58.31	0
2	53056	58.41	0
2	53147	58.51	0
2	53238	58.61	0
2	53329	58.71	0
2	53420	58.81	0
2	53511	58.91	0
2	53605	59.01	0
2	53696	59.11	0
2	53787	59.21	0
2	53878	59.31	0
2	53969	59.41	0
2	54060	59.51	0
2	54151	59.61	0
2	54242	59.71	0
2	54333	59.81	0
2	54424	59.91	0
2	54518	60.01	0
2	54609	60.11	0
2	54700	60.21	0
2	54791	60.31	0
2	54882	60.41	0
2	54973	60.51	0
2	55064	60.61	0
2	55155	60.71	0
2	55246	60.81	0
2	55337	60.91	0
2	55431	61.01	0
2	55522	61.11	0
2	55613	61.21	0
2	55704	61.31	0
2	55795	61.41	0
2	55886	61.51	0
2	55977	61.61	0
2	56068	61.71	0
2	56159	61.81	0
2	56250	61.91	0
2	56344	62.01	0
2	56435	62.11	0
2	56526	62.21	0
2	56617	62.31	0
2	56708	62.41	0
2	56799	62.51	0
2	56890	62.61	0
2	56981	62.71	0
2	57072	62.81	0
2	57163	62.91	0
2	57257	63.01	0
2	57348	63.11	0
2	57439	63.21	0
2	57530	63.31	0
2	57621	63.41	0
2	57712	63.51	0
2	57803	63.61	0
2	57894	63.71	0
2	57985	63.81	0
2	58076	63.91	0
2	58170	64.01	0
2	58261	64.11	0
2	58352	64.21	0
2	58443	64.31	0
2	58534	64.41	0
2	58625	64.51	0
2	58716	64.61	0
2	58807	64.71	0
2	58898	64.81	0
2	58989	64.91	0
2	59083	65.01	0
2	59174	65.11	0
2	59265	65.21	0
2	59356	65.31	0
2	59447	65.41	0
2	59538	65.51	0
2	59629	65.61	0
2	59720	65.71	0
2	59811	65.81	0
2	59902	65.91	0
2	59996	66.01	0
2	60087	66.11	0
2	60178	66.21	0
2	60269	66.31	0
2	60360	66.41	0
2	60451	66.51	0
2	60542	66.61	0
2	60633	66.71	0
2	60724	66.81	0
2	60815	66.91	0
2	60909	67.01	0
2	61000	67.11	0
2	61091	67.21	0
2	61182	67.31	0
2	61273	67.41	0
2	61364	67.51	0
2	61455	67.61	0
2	61546	67.71	0
2	61637	67.81	0
2	61728	67.91	0
2	61822	68.01	0
2	61913	68.11	0
2	62004	68.21	0
2	62095	68.31	0
2	62186	68.41	0
2	62277	68.51	0
2	62368	68.61	0
2	62459	68.71	0
2	62550	68.81	0
2	62641	68.91	0
2	62735	69.01	0
2	62826	69.11	0
2	62917	69.21	0
2	63008	69.31	0
2	63099	69.41	0
2	63190	69.51	0
2	63281	69.61	0
2	63372	69.71	0
2	63463	69.81	0
2	63554	69.91	0
2	63648	70.01	0
2	63739	70.11	0
2	63830	70.21	0
2	63921	70.31	0
2	64012	70.41	0
2	64103	70.51	0
2	64194	70.61	0
2	64285	70.71	0
2	64376	70.81	0
2	64467	70.91	0
2	64561	71.01	0
2	64652	71.11	0
2	64743	71.21	0
2	64834	71.31	0
2	64925	71.41	0
2	65016	71.51	0
2	65107	71.61	0
2	65198	71.71	0
2	65289	71.81	0
2	65380	71.91	0
2	65474	72.01	0
2	65565	72.11	0
2	65656	72.21	0
2	65747	72.31	0
2	65838	72.41	0
2	65929	72.51	0
2	66020	72.61	0
2	66111	72.71	0
2	66202	72.81	0
2	66293	72.91	0
2	66387	73.01	0
2	66478	73.11	0
2	66569	73.21	0
2	66660	73.31	0
2	66751	73.41	0
2	66842	73.51	0
2	66933	73.61	0
2	67024	73.71	0
2	67115	73.81	0
2	67206	73.91	0
2	67300	74.01	0
2	67391	74.11	0
2	67482	74.21	0
2	67573	74.31	0
2	67664	74.41	0
2	67755	74.51	0
2	67846	74.61	0
2	67937	74.71	0
2	68028	74.81	0
2	68119	74.91	0
2	68213	75.01	0
2	68304	75.11	0
2	68395	75.21	0
2	68486	75.31	0
2	68577	75.41	0
2	68668	75.51	0
2	68759	75.61	0
2	68850	75.71	0
2	68941	75.81	0
2	69032	75.91	0
2	69126	76.01	0
2	69217	76.11	0
2	69308	76.21	0
2	69399	76.31	0
2	69490	76.41	0
2	69581	76.51	0
2	69672	76.61	0
2	69763	76.71	0
2	69854	76.81	0
2	69945	76.91	0
2	70039	77.01	0
2	70130	77.11	0
2	70221	77.21	0
2	70312	77.31	0
2	70403	77.41	0
2	70494	77.51	0
2	70585	77.61	0
2	70676	77.71	0
2	70767	77.81	0
2	70858	77.91	0
2	70952	78.01	0
2	71043	78.11	0
2	71134	78.21	0
2	71225	78.31	0
2	71316	78.41	0
2	71407	78.51	0
2	71498	78.61	0
2	71589	78.71	0
2	71680	78.81	0
2	71771	78.91	0
2	71865	79.01	0
2	71956	79.11	0
2	72047	79.21	0
2	72138	79.31	0
2	72229	79.41	0
2	72320	79.51	0
2	72411	79.61	0
2	72502	79.71	0
2	72593	79.81	0
2	72684	79.91	0
2	72778	80.01	0
2	72869	80.11	0
2	72960	80.21	0
2	73051	80.31	0
2	73142	80.41	0
2	73233	80.51	0
2	73324	80.61	0
2	73415	80.71	0
2	73506	80.81	0
2	73597	80.91	0
2	73691	81.01	0
2	73782	81.11	0
2	73873	81.21	0
2	73964	81.31	0
2	74055	81.41	0
2	74146	81.51	0
2	74237	81.61	0
2	74328	81.71	0
2	74419	81.81	0
2	74510	81.91	0
2	74604	82.01	0
2	74695	82.11	0
2	74786	82.21	0
2	74877	82.31	0
2	74968	82.41	0
2	75059	82.51	0
2	75150	82.61	0
2	75241	82.71	0
2	75332	82.81	0
2	75423	82.91	0
2	75517	83.01	0
2	75608	83.11	0
2	75699	83.21	0
2	75790	83.31	0
2	75881	83.41	0
2	75972	83.51	0
2	76063	83.61	0
2	76154	83.71	0
2	76245	83.81	0
2	76336	83.91	0
2	76430	84.01	0
2	76521	84.11	0
2	76612	84.21	0
2	76703	84.31	0
2	76794	84.41	0
2	76885	84.51	0
2	76976	84.61	0
2	77067	84.71	0
2	77158	84.81	0
2	77249	84.91	0
2	77343	85.01	0
2	77434	85.11	0
2	77525	85.21	0
2	77616	85.31	0
2	77707	85.41	0
2	77798	85.51	0
2	77889	85.61	0
2	77980	85.71	0
2	78071	85.81	0
2	78162	85.91	0
2	78256	86.01	0
2	78347	86.11	0
2	78438	86.21	0
2	78529	86.31	0
2	78620	86.41	0
2	78711	86.51	0
2	78802	86.61	0
2	78893	86.71	0
2	78984	86.81	0
2	79075	86.91	0
2	79169	87.01	0
2	79260	87.11	0
2	79351	87.21	0
2	79442	87.31	0
2	79533	87.41	0
2	79624	87.51	0
2	79715	87.61	0
2	79806	87.71	0
2	79897	87.81	0
2	79988	87.91	0
2	80082	88.01	0
2	80173	88.11	0
2	80264	88.21	0
2	80355	88.31	0
2	80446	88.41	0
2	80537	88.51	0
2	80628	88.61	0
2	80719	88.71	0
2	80810	88.81	0
2	80901	88.91	0
2	80995	89.01	0
2	81086	89.11	0
2	81177	89.21	0
2	81268	89.31	0
2	81359	89.41	0
2	81450	89.51	0
2	81541	89.61	0
2	81632	89.71	0
2	81723	89.81	0
2	81814	89.91	0
2	81908	90.01	0
2	81999	90.11	0
2	82090	90.21	0
2	82181	90.31	0
2	82272	90.41	0
2	82363	90.51	0
2	82454	90.61	0
2	82545	90.71	0
2	82636	90.81	0
2	82727	90.91	0
2	82821	91.01	0
2	82912	91.11	0
2	83003	91.21	0
2	83094	91.31	0
2	83185	91.41	0
2	83276	91.51	0
2	83367	91.61	0
2	83458	91.71	0
2	83549	91.81	0
2	83640	91.91	0
2	83734	92.01	0
2	83825	92.11	0
2	83916	92.21	0
2	84007	92.31	0
2	84098	92.41	0
2	84189	92.51	0
2	84280	92.61	0
2	84371	92.71	0
2	84462	92.81	0
2	84553	92.91	0
2	84647	93.01	0
2	84738	93.11	0
2	84829	93.21	0
2	84920	93.31	0
2	85011	93.41	0
2	85102	93.51	0
2	85193	93.61	0
2	85284	93.71	0
2	85375	93.81	0
2	85466	93.91	0
2	85560	94.01	0
2	85651	94.11	0
2	85742	94.21	0
2	85833	94.31	0
2	85924	94.41	0
2	86015	94.51	0
2	86106	94.61	0
2	86197	94.71	0
2	86288	94.81	0
2	86379	94.91	0
2	86473	95.01	0
2	86564	95.11	0
2	86655	95.21	0
2	86746	95.31	0
2	86837	95.41	0
2	86928	95.51	0
2	87019	95.61	0
2	87110	95.71	0
2	87201	95.81	0
2	87292	95.91	0
2	87386	96.01	0
2	87477	96.11	0
2	87568	96.21	0
2	87659	96.31	0
2	87750	96.41	0
2	87841	96.51	0
2	87932	96.61	0
2	88023	96.71	0
2	88114	96.81	0
2	88205	96.91	0
2	88299	97.01	0
2	88390	97.11	0
2	88481	97.21	0
2	88572	97.31	0
2	88663	97.41	0
2	88754	97.51	0
2	88845	97.61	0
2	88936	97.71	0
2	89027	97.81	0
2	89118	97.91	0
2	89212	98.01	0
2	89303	98.11	0
2	89394	98.21	0
2	89485	98.31	0
2	89576	98.41	0
2	89667	98.51	0
2	89758	98.61	0
2	89849	98.71	0
2	89940	98.81	0
2	90031	98.91	0
2	90125	99.01	0
2	90216	99.11	0
2	90307	99.21	0
2	90398	99.31	0
2	90489	99.41	0
2	90580	99.51	0
2	90671	99.61	0
2	90762	99.71	0
2	90853	99.81	0
2	90944	99.91	0
3	113	1.11	0.000179096
3	204	1.21	0.000340852
3	295	1.31	0.000467435
3	386	1.41	0.000562893
3	477	1.51	0.000631106
3	568	1.61	0.000675745
3	659	1.71	0.000700245
3	750	1.81	0.000707784
3	841	1.91	0.000701273
3	935	2.01	0.000683354
3	1026	2.11	0.000656398
3	1117	2.21	0.000622512
3	1208	2.31	0.000583548
3	1299	2.41	0.000541117
3	1390	2.51	0.000496604
3	1481	2.61	0.000451181
3	1572	2.71	0.000405825
3	1663	2.81	0.00036134
3	1754	2.91	0.000318365
3	1848	3.01	0.0002774
3	1939	3.11	0.00023882
3	2030	3.21	0.000202887
3	2121	3.31	0.00016977
3	2212	3.41	0.000139558
3	2303	3.51	0.000112271
3	2394	3.61	8.78717e-05
3	2485	3.71	6.628e-05
3	2576	3.81	4.73785e-05
3	2667	3.91	3.1023e-05
3	2761	4.01	1.70493e-05
3	2852	4.11	5.28023e-06
3	2943	4.21	-4.46922e-06
3	3034	4.31	-1.2387e-05
3	3125	4.41	-1.86602e-05
3	3216	4.51	-2.34717e-05
3	3307	4.61	-2.69978e-05
3	3398	4.71	-2.94062e-05
3	3489	4.81	-3.08545e-05
3	3580	4.91	-3.14892e-05
3	3674	5.01	-3.14451e-05
3	3765	5.11	-3.0845e-05
3	3856	5.21	-2.97994e-05
3	3947	5.31	-2.84072e-05
3	4038	5.41	-2.67556e-05
3	4129	5.51	-2.49208e-05
3	4220	5.61	-2.29687e-05
3	4311	5.71	-2.09553e-05
3	4402	5.81	-1.89277e-05
3	4493	5.91	-1.6925e-05
3	4587	6.01	-1.49784e-05
3	4678	6.11	-1.31129e-05
3	4769	6.21	-1.13474e-05
3	4860	6.31	-9.69553e-06
3	4951	6.41	-8.16651e-06
3	5042	6.51	-6.76571e-06
3	5133	6.61	-5.49522e-06
3	5224	6.71	-4.35441e-06
3	5315	6.81	-3.34045e-06
3	5406	6.91	-2.44874e-06
3	5500	7.01	-1.6733e-06
3	5591	7.11	-1.00716e-06
3	5682	7.21	-4.42628e-07
3	5773	7.31	2.84224e-08
3	5864	7.41	4.14339e-07
3	5955	7.51	7.23492e-07
3	6046	7.61	9.6413e-07
3	6137	7.71	1.14424e-06
3	6228	7.81	1.27148e-06
3	6319	7.91	1.35305e-06
3	6413	8.01	1.3957e-06
3	6504	8.11	1.40565e-06
3	6595	8.21	1.3886e-06
3	6686	8.31	1.34971e-06
3	6777	8.41	1.2936e-06
3	6868	8.51	1.22437e-06
3	6959	8.61	1.14561e-06
3	7050	8.71	1.06046e-06
3	7141	8.81	9.71582e-07
3	7232	8.91	8.81246e-07
3	7326	9.01	7.91334e-07
3	7417	9.11	7.03381e-07
3	7508	9.21	6.18613e-07
3	7599	9.31	5.37979e-07
3	7690	9.41	4.62183e-07
3	7781	9.51	3.91714e-07
3	7872	9.61	3.26878e-07
3	7963	9.71	2.67827e-07
3	8054	9.81	2.14581e-07
3	8145	9.91	1.67052e-07
3	8268	10.01	1.25066e-07
3	8361	10.11	8.83794e-08
3	8454	10.21	5.66978e-08
3	8547	10.31	2.96922e-08
3	8640	10.41	7.00453e-09
3	8733	10.51	-1.17325e-08
3	8826	10.61	-2.68933e-08
3	8919	10.71	-3.88482e-08
3	9012	10.81	-4.79581e-08
3	9105	10.91	-5.45704e-08
3	9201	11.01	-5.90177e-08
3	9294	11.11	-6.16069e-08
3	9387	11.21	-6.26265e-08
3	9480	11.31	-6.23395e-08
3	9573	11.41	-6.09859e-08
3	9666	11.51	-5.87811e-08
3	9759	11.61	-5.59183e-08
3	9852	11.71	-5.25674e-08
3	9945	11.81	-4.88761e-08
3	10038	11.91	-4.4971e-08
3	10134	12.01	-4.09599e-08
3	10227	12.11	-3.69354e-08
3	10320	12.21	-3.29713e-08
3	10413	12.31	-2.9128e-08
3	10506	12.41	-2.54531e-08
3	10599	12.51	-2.19821e-08
3	10692	12.61	-1.87399e-08
3	10785	12.71	-1.57428e-08
3	10878	12.81	-1.30029e-08
3	10971	12.91	-1.05217e-08
3	11067	13.01	-8.29772e-09
3	11160	13.11	-6.32454e-09
3	11253	13.21	-4.59224e-09
3	11346	13.31	-3.08802e-09
3	11439	13.41	-1.79838e-09
3	11532	13.51	-7.08411e-10
3	11625	13.61	1.98241e-10
3	11718	13.71	9.37916e-10
3	11811	13.81	1.52767e-09
3	11904	13.91	1.98384e-09
3	12000	14.01	2.32276e-09
3	12093	14.11	2.55937e-09
3	12186	14.21	2.70788e-09
3	12279	14.31	2.78249e-09
3	12372	14.41	2.79243e-09
3	12465	14.51	2.7498e-09
3	12558	14.61	2.66525e-09
3	12651	14.71	2.54872e-09
3	12744	14.81	2.40803e-09
3	12837	14.91	2.24887e-09
3	12933	15.01	2.07763e-09
3	13026	15.11	1.89999e-09
3	13119	15.21	1.72236e-09
3	13212	15.31	1.54472e-09
3	13305	15.41	1.37064e-09
3	13398	15.51	1.20295e-09
3	13491	15.61	1.04379e-09
3	13584	15.71	8.94573e-10
3	13677	15.81	7.56017e-10
3	13770	15.91	6.29541e-10
3	13866	16.01	5.13012e-10
3	13959	16.11	4.09273e-10
3	14052	16.21	3.16902e-10
3	14145	16.31	2.3519e-10
3	14238	16.41	1.63425e-10
3	14331	16.51	1.02318e-10
3	14424	16.61	4.9738e-11
3	14517	16.71	5.68434e-12
3	14610	16.81	-3.05533e-11
3	14703	16.91	-5.8975e-11
3	14799	17.01	-8.10019e-11
3	14892	17.11	-9.80549e-11
3	14985	17.21	-1.11555e-10
3	15078	17.31	-1.18661e-10
3	15171	17.41	-1.23634e-10
3	15264	17.51	-1.23634e-10
3	15357	17.61	-1.23634e-10
3	15450	17.71	-1.21503e-10
3	15543	17.81	-1.14397e-10
3	15636	17.91	-1.07292e-10
3	15732	18.01	-1.00187e-10
3	15825	18.11	-9.30811e-11
3	15918	18.21	-8.59757e-11
3	16011	18.31	-7.88702e-11
3	16104	18.41	-7.17648e-11
3	16197	18.51	-6.46594e-11
3	16290	18.61	-5.7554e-11
3	16383	18.71	-5.04485e-11
3	16476	18.81	-4.33431e-11
3	16569	18.91	-3.62377e-11
3	16665	19.01	-2.91323e-11
3	16758	19.11	-2.20268e-11
3	16851	19.21	-1.7053e-11
3	16944	19.31	-1.49214e-11
3	17037	19.41	-1.35003e-11
3	17130	19.51	-1.27898e-11
3	17223	19.61	-1.13687e-11
3	17316	19.71	-9.9476e-12
3	17409	19.81	-9.23706e-12
3	17502	19.91	-8.52651e-12
3	17598	20.01	-7.81597e-12
3	17691	20.11	-7.10543e-12
3	17784	20.21	-6.39488e-12
3	17877	20.31	-5.68434e-12
3	17970	20.41	-4.9738e-12
3	18063	20.51	-4.26326e-12
3	18156	20.61	-4.26326e-12
3	18249	20.71	-3.55271e-12
3	18342	20.81	-3.55271e-12
3	18435	20.91	-2.84217e-12
3	18531	21.01	-2.84217e-12
3	18624	21.11	-2.84217e-12
3	18717	21.21	-2.13163e-12
3	18810	21.31	-2.13163e-12
3	18903	21.41	-2.13163e-12
3	18996	21.51	-1.42109e-12
3	19089	21.61	-1.42109e-12
3	19182	21.71	-1.42109e-12
3	19275	21.81	-1.42109e-12
3	19368	21.91	-1.42109e-12
3	19464	22.01	-7.10543e-13
3	19557	22.11	-7.10543e-13
3	19650	22.21	-7.10543e-13
3	19743	22.31	-7.10543e-13
3	19836	22.41	-7.10543e-13
3	19929	22.51	-7.10543e-13
3	20022	22.61	-7.10543e-13
3	20115	22.71	-7.10543e-13
3	20208	22.81	-7.10543e-13
3	20301	22.91	-7.10543e-13
3	20397	23.01	0
3	20490	23.11	0
3	20583	23.21	0
3	20676	23.31	0
3	20769	23.41	0
3	20862	23.51	0
3	20955	23.61	0
3	21048	23.71	0
3	21141	23.81	0
3	21234	23.91	0
3	21330	24.01	0
3	21423	24.11	0
3	21516	24.21	0
3	21609	24.31	0
3	21702	24.41	0
3	21795	24.51	0
3	21888	24.61	0
3	21981	24.71	0
3	22074	24.81	0
3	22167	24.91	0
3	22263	25.01	0
3	22356	25.11	0
3	22449	25.21	0
3	22542	25.31	0
3	22635	25.41	0
3	22728	25.51	0
3	22821	25.61	0
3	22914	25.71	0
3	23007	25.81	0
3	23100	25.91	0
3	23196	26.01	0
3	23289	26.11	0
3	23382	26.21	0
3	23475	26.31	0
3	23568	26.41	0
3	23661	26.51	0
3	23754	26.61	0
3	23847	26.71	0
3	23940	26.81	0
3	24033	26.91	0
3	24129	27.01	0
3	24222	27.11	0
3	24315	27.21	0
3	24408	27.31	0
3	24501	27.41	0
3	24594	27.51	0
3	24687	27.61	0
3	24780	27.71	0
3	24873	27.81	0
3	24966	27.91	0
3	25062	28.01	0
3	25155	28.11	0
3	25248	28.21	0
3	25341	28.31	0
3	25434	28.41	0
3	25527	28.51	0
3	25620	28.61	0
3	25713	28.71	0
3	25806	28.81	0
3	25899	28.91	0
3	25995	29.01	0
3	26088	29.11	0
3	26181	29.21	0
3	26317	29.31	0
3	26409	29.41	0
3	26501	29.51	0
3	26593	29.61	0
3	26685	29.71	0
3	26777	29.81	0
3	26869	29.91	0
3	26964	30.01	0
3	27056	30.11	0
3	27148	30.21	0
3	27240	30.31	0
3	27332	30.41	0
3	27424	30.51	0
3	27516	30.61	0
3	27608	30.71	0
3	27700	30.81	0
3	27792	30.91	0
3	27887	31.01	0
3	27979	31.11	0
3	28071	31.21	0
3	28163	31.31	0
3	28255	31.41	0
3	28347	31.51	0
3	28439	31.61	0
3	28531	31.71	0
3	28623	31.81	0
3	28715	31.91	0
3	28810	32.01	0
3	28902	32.11	0
3	28994	32.21	0
3	29086	32.31	0
3	29178	32.41	0
3	29270	32.51	0
3	29362	32.61	0
3	29454	32.71	0
3	29546	32.81	0
3	29638	32.91	0
3	29733	33.01	0
3	29825	33.11	0
3	29917	33.21	0
3	30009	33.31	0
3	30101	33.41	0
3	30322	33.51	0
3	30413	33.61	0
3	30504	33.71	0
3	30595	33.81	0
3	30686	33.91	0
3	30780	34.01	0
3	30871	34.11	0
3	30962	34.21	0
3	31053	34.31	0
3	31144	34.41	0
3	31235	34.51	0
3	31326	34.61	0
3	31417	34.71	0
3	31508	34.81	0
3	31599	34.91	0
3	31693	35.01	0
3	31784	35.11	0
3	31875	35.21	0
3	31966	35.31	0
3	32057	35.41	0
3	32148	35.51	0
3	32239	35.61	0
3	32330	35.71	0
3	32421	35.81	0
3	32512	35.91	0
3	32606	36.01	0
3	32697	36.11	0
3	32788	36.21	0
3	32879	36.31	0
3	32970	36.41	0
3	33061	36.51	0
3	33152	36.61	0
3	33243	36.71	0
3	33334	36.81	0
3	33425	36.91	0
3	33519	37.01	0
3	33610	37.11	0
3	33701	37.21	0
3	33792	37.31	0
3	33883	37.41	0
3	33974	37.51	0
3	34065	37.61	0
3	34156	37.71	0
3	34247	37.81	0
3	34338	37.91	0
3	34432	38.01	0
3	34523	38.11	0
3	34614	38.21	0
3	34705	38.31	0
3	34796	38.41	0
3	34887	38.51	0
3	34978	38.61	0
3	35069	38.71	0
3	35160	38.81	0
3	35251	38.91	0
3	35345	39.01	0
3	35436	39.11	0
3	35527	39.21	0
3	35618	39.31	0
3	35709	39.41	0
3	35800	39.51	0
3	35891	39.61	0
3	35982	39.71	0
3	36073	39.81	0
3	36164	39.91	0
3	36258	40.01	0
3	36349	40.11	0
3	36440	40.21	0
3	36531	40.31	0
3	36622	40.41	0
3	36713	40.51	0
3	36804	40.61	0
3	36895	40.71	0
3	36986	40.81	0
3	37077	40.91	0
3	37171	41.01	0
3	37262	41.11	0
3	37353	41.21	0
3	37444	41.31	0
3	37535	41.41	0
3	37626	41.51	0
3	37717	41.61	0
3	37808	41.71	0
3	37899	41.81	0
3	37990	41.91	0
3	38084	42.01	0
3	38175	42.11	0
3	38266	42.21	0
3	38357	42.31	0
3	38448	42.41	0
3	38539	42.51	0
3	38630	42.61	0
3	38721	42.71	0
3	38812	42.81	0
3	38903	42.91	0
3	38997	43.01	0
3	39088	43.11	0
3	39179	43.21	0
3	39270	43.31	0
3	39361	43.41	0
3	39452	43.51	0
3	39543	43.61	0
3	39634	43.71	0
3	39725	43.81	0
3	39816	43.91	0
3	39910	44.01	0
3	40001	44.11	0
3	40092	44.21	0
3	40183	44.31	0
3	40274	44.41	0
3	40365	44.51	0
3	40456	44.61	0
3	40547	44.71	0
3	40638	44.81	0
3	40729	44.91	0
3	40823	45.01	0
3	40914	45.11	0
3	41005	45.21	0
3	41096	45.31	0
3	41187	45.41	0
3	41278	45.51	0
3	41369	45.61	0
3	41460	45.71	0
3	41551	45.81	0
3	41642	45.91	0
3	41736	46.01	0
3	41827	46.11	0
3	41918	46.21	0
3	42009	46.31	0
3	42100	46.41	0
3	42191	46.51	0
3	42282	46.61	0
3	42373	46.71	0
3	42464	46.81	0
3	42555	46.91	0
3	42649	47.01	0
3	42740	47.11	0
3	42831	47.21	0
3	42922	47.31	0
3	43013	47.41	0
3	43104	47.51	0
3	43195	47.61	0
3	43286	47.71	0
3	43377	47.81	0
3	43468	47.91	0
3	43562	48.01	0
3	43653	48.11	0
3	43744	48.21	0
3	43835	48.31	0
3	43926	48.41	0
3	44017	48.51	0
3	44108	48.61	0
3	44199	48.71	0
3	44290	48.81	0
3	44381	48.91	0
3	44475	49.01	0
3	44566	49.11	0
3	44657	49.21	0
3	44748	49.31	0
3	44839	49.41	0
3	44930	49.51	0
3	45021	49.61	0
3	45112	49.71	0
3	45203	49.81	0
3	45294	49.91	0
3	45388	50.01	0
3	45479	50.11	0
3	45570	50.21	0
3	45661	50.31	0
3	45752	50.41	0
3	45843	50.51	0
3	45934	50.61	0
3	46025	50.71	0
3	46116	50.81	0
3	46207	50.91	0
3	46301	51.01	0
3	46392	51.11	0
3	46483	51.21	0
3	46574	51.31	0
3	46665	51.41	0
3	46756	51.51	0
3	46847	51.61	0
3	46938	51.71	0
3	47029	51.81	0
3	47120	51.91	0
3	47214	52.01	0
3	47305	52.11	0
3	47396	52.21	0
3	47487	52.31	0
3	47578	52.41	0
3	47669	52.51	0
3	47760	52.61	0
3	47851	52.71	0
3	47942	52.81	0
3	48033	52.91	0
3	48127	53.01	0
3	48218	53.11	0
3	48309	53.21	0
3	48400	53.31	0
3	48491	53.41	0
3	48582	53.51	0
3	48673	53.61	0
3	48764	53.71	0
3	48855	53.81	0
3	48946	53.91	0
3	49040	54.01	0
3	49131	54.11	0
3	49222	54.21	0
3	49313	54.31	0
3	49404	54.41	0
3	49495	54.51	0
3	49586	54.61	0
3	49677	54.71	0
3	49768	54.81	0
3	49859	54.91	0
3	49953	55.01	0
3	50044	55.11	0
3	50135	55.21	0
3	50226	55.31	0
3	50317	55.41	0
3	50408	55.51	0
3	50499	55.61	0
3	50590	55.71	0
3	50681	55.81	0
3	50772	55.91	0
3	50866	56.01	0
3	50957	56.11	0
3	51048	56.21	0
3	51139	56.31	0
3	51230	56.41	0
3	51321	56.51	0
3	51412	56.61	0
3	51503	56.71	0
3	51594	56.81	0
3	51685	56.91	0
3	51779	57.01	0
3	51870	57.11	0
3	51961	57.21	0
3	52052	57.31	0
3	52143	57.41	0
3	52234	57.51	0
3	52325	57.61	0
3	52416	57.71	0
3	52507	57.81	0
3	52598	57.91	0
3	52692	58.01	0
3	52783	58.11	0
3	52874	58.21	0
3	52965	58.31	0
3	53056	58.41	0
3	53147	58.51	0
3	53238	58.61	0
3	53329	58.71	0
3	53420	58.81	0
3	53511	58.91	0
3	53605	59.01	0
3	53696	59.11	0
3	53787	59.21	0
3	53878	59.31	0
3	53969	59.41	0
3	54060	59.51	0
3	54151	59.61	0
3	54242	59.71	0
3	54333	59.81	0
3	54424	59.91	0
3	54518	60.01	0
3	54609	60.11	0
3	54700	60.21	0
3	54791	60.31	0
3	54882	60.41	0
3	54973	60.51	0
3	55064	60.61	0
3	55155	60.71	0
3	55246	60.81	0
3	55337	60.91	0
3	55431	61.01	0
3	55522	61.11	0
3	55613	61.21	0
3	55704	61.31	0
3	55795	61.41	0
3	55886	61.51	0
3	55977	61.61	0
3	56068	61.71	0
3	56159	61.81	0
3	56250	61.91	0
3	56344	62.01	0
3	56435	62.11	0
3	56526	62.21	0
3	56617	62.31	0
3	56708	62.41	0
3	56799	62.51	0
3	56890	62.61	0
3	56981	62.71	0
3	57072	62.81	0
3	57163	62.91	0
3	57257	63.01	0
3	57348	63.11	0
3	57439	63.21	0
3	57530	63.31	0
3	57621	63.41	0
3	57712	63.51	0
3	57803	63.61	0
3	57894	63.71	0
3	57985	63.81	0
3	58076	63.91	0
3	58170	64.01	0
3	58261	64.11	0
3	58352	64.21	0
3	58443	64.31	0
3	58534	64.41	0
3	58625	64.51	0
3	58716	64.61	0
3	58807	64.71	0
3	58898	64.81	0
3	58989	64.91	0
3	59083	65.01	0
3	59174	65.11	0
3	59265	65.21	0
3	59356	65.31	0
3	59447	65.41	0
3	59538	65.51	0
3	59629	65.61	0
3	59720	65.71	0
3	59811	65.81	0
3	59902	65.91	0
3	59996	66.01	0
3	60087	66.11	0
3	60178	66.21	0
3	60269	66.31	0
3	60360	66.41	0
3	60451	66.51	0
3	60542	66.61	0
3	60633	66.71	0
3	60724	66.81	0
3	60815	66.91	0
3	60909	67.01	0
3	61000	67.11	0
3	61091	67.21	0
3	61182	67.31	0
3	61273	67.41	0
3	61364	67.51	0
3	61455	67.61	0
3	61546	67.71	0
3	61637	67.81	0
3	61728	67.91	0
3	61822	68.01	0
3	61913	68.11	0
3	62004	68.21	0
3	62095	68.31	0
3	62186	68.41	0
3	62277	68.51	0
3	62368	68.61	0
3	62459	68.71	0
3	62550	68.81	0
3	62641	68.91	0
3	62735	69.01	0
3	62826	69.11	0
3	62917	69.21	0
3	63008	69.31	0
3	63099	69.41	0
3	63190	69.51	0
3	63281	69.61	0
3	63372	69.71	0
3	63463	69.81	0
3	63554	69.91	0
3	63648	70.01	0
3	63739	70.11	0
3	63830	70.21	0
3	63921	70.31	0
3	64012	70.41	0
3	64103	70.51	0
3	64194	70.61	0
3	64285	70.71	0
3	64376	70.81	0
3	64467	70.91	0
3	64561	71.01	0
3	64652	71.11	0
3	64743	71.21	0
3	64834	71.31	0
3	64925	71.41	0
3	65016	71.51	0
3	65107	71.61	0
3	65198	71.71	0
3	65289	71.81	0
3	65380	71.91	0
3	65474	72.01	0
3	65565	72.11	0
3	65656	72.21	0
3	65747	72.31	0
3	65838	72.41	0
3	65929	72.51	0
3	66020	72.61	0
3	66111	72.71	0
3	66202	72.81	0
3	66293	72.91	0
3	66387	73.01	0
3	66478	73.11	0
3	66569	73.21	0
3	66660	73.31	0
3	66751	73.41	0
3	66842	73.51	0
3	66933	73.61	0
3	67024	73.71	0
3	67115	73.81	0
3	67206	73.91	0
3	67300	74.01	0
3	67391	74.11	0
3	67482	74.21	0
3	67573	74.31	0
3	67664	74.41	0
3	67755	74.51	0
3	67846	74.61	0
3	67937	74.71	0
3	68028	74.81	0
3	68119	74.91	0
3	68213	75.01	0
3	68304	75.11	0
3	68395	75.21	0
3	68486	75.31	0
3	68577	75.41	0
3	68668	75.51	0
3	68759	75.61	0
3	68850	75.71	0
3	68941	75.81	0
3	69032	75.91	0
3	69126	76.01	0
3	69217	76.11	0
3	69308	76.21	0
3	69399	76.31	0
3	69490	76.41	0
3	69581	76.51	0
3	69672	76.61	0
3	69763	76.71	0
3	69854	76.81	0
3	69945	76.91	0
3	70039	77.01	0
3	70130	77.11	0
3	70221	77.21	0
3	70312	77.31	0
3	70403	77.41	0
3	70494	77.51	0
3	70585	77.61	0
3	70676	77.71	0
3	70767	77.81	0
3	70858	77.91	0
3	70952	78.01	0
3	71043	78.11	0
3	71134	78.21	0
3	71225	78.31	0
3	71316	78.41	0
3	71407	78.51	0
3	71498	78.61	0
3	71589	78.71	0
3	71680	78.81	0
3	71771	78.91	0
3	71865	79.01	0
3	71956	79.11	0
3	72047	79.21	0
3	72138	79.31	0
3	72229	79.41	0
3	72320	79.51	0
3	72411	79.61	0
3	72502	79.71	0
3	72593	79.81	0
3	72684	79.91	0
3	72778	80.01	0
3	72869	80.11	0
3	72960	80.21	0
3	73051	80.31	0
3	73142	80.41	0
3	73233	80.51	0
3	73324	80.61	0
3	73415	80.71	0
3	73506	80.81	0
3	73597	80.91	0
3	73691	81.01	0
3	73782	81.11	0
3	73873	81.21	0
3	73964	81.31	0
3	74055	81.41	0
3	74146	81.51	0
3	74237	81.61	0
3	74328	81.71	0
3	74419	81.81	0
3	74510	81.91	0
3	74604	82.01	0
3	74695	82.11	0
3	74786	82.21	0
3	74877	82.31	0
3	74968	82.41	0
3	75059	82.51	0
3	75150	82.61	0
3	75241	82.71	0
3	75332	82.81	0
3	75423	82.91	0
3	75517	83.01	0
3	75608	83.11	0
3	75699	83.21	0
3	75790	83.31	0
3	75881	83.41	0
3	75972	83.51	-0.0365004
3	76063	83.61	-0.0867993
3	76154	83.71	-0.125268
3	76245	83.81	-0.153372
3	76336	83.91	-0.172483
3	76430	84.01	-0.18387
3	76521	84.11	-0.188705
3	76612	84.21	-0.188056
3	76703	84.31	-0.18289
3	76794	84.41	-0.174078
3	76885	84.51	-0.162397
3	76976	84.61	-0.148531
3	77067	84.71	-0.133082
3	77158	84.81	-0.116572
3	77249	84.91	-0.0994501
3	77343	85.01	-0.0820962
3	77434	85.11	-0.0648291
3	77525	85.21	-0.0479113
3	77616	85.31	-0.0315549
3	77707	85.41	-0.0159271
3	77798	85.51	-0.00115502
3	77889	85.61	0.0126689
3	77980	85.71	0.0254828
3	78071	85.81	0.0372506
3	78162	85.91	0.0479586
3	78256	86.01	0.0576114
3	78347	86.11	0.0662292
3	78438	86.21	0.0738442
3	78529	86.31	0.0804987
3	78620	86.41	0.0862423
3	78711	86.51	0.09113
3	78802	86.61	0.0952204
3	78893	86.71	0.0985744
3	78984	86.81	0.101254
3	79075	86.91	0.103319
3	79169	87.01	0.104832
3	79260	87.11	0.105851
3	79351	87.21	0.10643
3	79442	87.31	0.106575
3	79533	87.41	0.105224
3	79624	87.51	0.102229
3	79715	87.61	0.0979383
3	79806	87.71	0.0926618
3	79897	87.81	0.0866713
3	79988	87.91	0.0802024
3	80082	88.01	0.0734572
3	80173	88.11	0.0666063
3	80264	88.21	0.0597915
3	80355	88.31	0.0531286
3	80446	88.41	0.0467098
3	80537	88.51	0.0406063
3	80628	88.61	0.034871
3	80719	88.71	0.0295407
3	80810	88.81	0.0246381
3	80901	88.91	0.0201744
3	80995	89.01	0.0161507
3	81086	89.11	0.0125602
3	81177	89.21	0.00938951
3	81268	89.31	0.00662
3	81359	89.41	0.00422931
3	81450	89.51	0.00219225
3	81541	89.61	0.000481831
3	81632	89.71	-0.000929949
3	81723	89.81	-0.00207142
3	81814	89.91	-0.00297067
3	81908	90.01	-0.00365509
3	81999	90.11	-0.00415099
3	82090	90.21	-0.00448336
3	82181	90.31	-0.0046756
3	82272	90.41	-0.00474944
3	82363	90.51	-0.00472483
3	82454	90.61	-0.0046199
3	82545	90.71	-0.00445096
3	82636	90.81	-0.00423254
3	82727	90.91	-0.00397744
3	82821	91.01	-0.00369683
3	82912	91.11	-0.00340033
3	83003	91.21	-0.00309611
3	83094	91.31	-0.00279101
3	83185	91.41	-0.00249066
3	83276	91.51	-0.0021996
3	83367	91.61	-0.00192138
3	83458	91.71	-0.00165867
3	83549	91.81	-0.00141342
3	83640	91.91	-0.00118687
3	83734	92.01	-0.000979736
3	83825	92.11	-0.000792241
3	83916	92.21	-0.00062422
3	84007	92.31	-0.000475189
3	84098	92.41	-0.000344408
3	84189	92.51	-0.000230945
3	84280	92.61	-0.000133724
3	84371	92.71	-5.15702e-05
3	84462	92.81	1.67495e-05
3	84553	92.91	7.2495e-05
3	84647	93.01	0.000116925
3	84738	93.11	0.000151277
3	84829	93.21	0.000176744
3	84920	93.31	0.000194465
3	85011	93.41	0.000205515
3	85102	93.51	0.000210894
3	85193	93.61	0.000211524
3	85284	93.71	0.000208246
3	85375	93.81	0.000201823
3	85466	93.91	0.000192934
3	85560	94.01	0.000182181
3	85651	94.11	0.000170092
3	85742	94.21	0.000157125
3	85833	94.31	0.000143668
3	85924	94.41	0.000130053
3	86015	94.51	0.000116551
3	86106	94.61	0.000103384
3	86197	94.71	9.07283e-05
3	86288	94.81	7.87189e-05
3	86379	94.91	6.74552e-05
3	86473	95.01	5.70051e-05
3	86564	95.11	4.741e-05
3	86655	95.21	3.86883e-05
3	86746	95.31	3.08396e-05
3	86837	95.41	2.38478e-05
3	86928	95.51	1.76843e-05
3	87019	95.61	1.23109e-05
3	87110	95.71	7.68208e-06
3	87201	95.81	3.74703e-06
3	87292	95.91	4.51718e-07
3	87386	96.01	-2.25969e-06
3	87477	96.11	-4.44346e-06
3	87568	96.21	-6.15521e-06
3	87659	96.31	-7.44905e-06
3	87750	96.41	-8.37684e-06
3	87841	96.51	-8.98771e-06
3	87932	96.61	-9.32763e-06
3	88023	96.71	-9.43918e-06
3	88114	96.81	-9.36139e-06
3	88205	96.91	-9.12968e-06
3	88299	97.01	-8.77584e-06
3	88390	97.11	-8.32817e-06
3	88481	97.21	-7.81155e-06
3	88572	97.31	-7.24763e-06
3	88663	97.41	-6.65504e-06
3	88754	97.51	-6.04953e-06
3	88845	97.61	-5.44431e-06
3	88936	97.71	-4.85016e-06
3	89027	97.81	-4.27577e-06
3	89118	97.91	-3.72787e-06
3	89212	98.01	-3.21154e-06
3	89303	98.11	-2.73037e-06
3	89394	98.21	-2.28668e-06
3	89485	98.31	-1.88167e-06
3	89576	98.41	-1.51568e-06
3	89667	98.51	-1.18826e-06
3	89758	98.61	-8.98342e-07
3	89849	98.71	-6.44398e-07
3	89940	98.81	-4.24518e-07
3	90031	98.91	-2.36525e-07
3	90125	99.01	-7.80638e-08
3	90216	99.11	5.33291e-08
3	90307	99.21	1.60161e-07
3	90398	99.31	2.44929e-07
3	90489	99.41	3.10074e-07
3	90580	99.51	3.57956e-07
3	90671	99.61	3.90814e-07
3	90762	99.71	4.1076e-07
3	90853	99.81	4.19756e-07
3	90944	99.91	4.19606e-07
4	113	1.11	0.00109259
4	204	1.21	0.00106709
4	295	1.31	0.00102704
4	386	1.41	0.000975759
4	477	1.51	0.00091619
4	568	1.61	0.000850891
4	659	1.71	0.000782061
4	750	1.81	0.00071157
4	841	1.91	0.00064098
4	935	2.01	0.000571575
4	1026	2.11	0.000504387
4	1117	2.21	0.000440223
4	1208	2.31	0.000379691
4	1299	2.41	0.000323223
4	1390	2.51	0.000271102
4	1481	2.61	0.000223482
4	1572	2.71	0.000180409
4	1663	2.81	0.000141839
4	1754	2.91	0.000107653
4	1848	3.01	7.76787e-05
4	1939	3.11	5.16957e-05
4	2030	3.21	2.94534e-05
4	2121	3.31	1.06787e-05
4	2212	3.41	-4.91459e-06
4	2303	3.51	-1.76184e-05
4	2394	3.61	-2.7724e-05
4	2485	3.71	-3.55168e-05
4	2576	3.81	-4.12726e-05
4	2667	3.91	-4.52541e-05
4	2761	4.01	-4.77086e-05
4	2852	4.11	-4.88665e-05
4	2943	4.21	-4.89399e-05
4	3034	4.31	-4.81224e-05
4	3125	4.41	-4.65886e-05
4	3216	4.51	-4.44947e-05
4	3307	4.61	-4.1979e-05
4	3398	4.71	-3.91623e-05
4	3489	4.81	-3.61492e-05
4	3580	4.91	-3.3029e-05
4	3674	5.01	-2.9877e-05
4	3765	5.11	-2.67554e-05
4	3856	5.21	-2.37147e-05
4	3947	5.31	-2.07949e-05
4	4038	5.41	-1.80267e-05
4	4129	5.51	-1.54325e-05
4	4220	5.61	-1.30275e-05
4	4311	5.71	-1.0821e-05
4	4402	5.81	-8.81673e-06
4	4493	5.91	-7.01443e-06
4	4587	6.01	-5.4101e-06
4	4678	6.11	-3.99696e-06
4	4769	6.21	-2.766e-06
4	4860	6.31	-1.70658e-06
4	4951	6.41	-8.06872e-07
4	5042	6.51	-5.43281e-08
4	5133	6.61	5.63994e-07
4	5224	6.71	1.06112e-06
4	5315	6.81	1.4499e-06
4	5406	6.91	1.74283e-06
4	5500	7.01	1.95188e-06
4	5591	7.11	2.08836e-06
4	5682	7.21	2.16287e-06
4	5773	7.31	2.1852e-06
4	5864	7.41	2.16432e-06
4	5955	7.51	2.10838e-06
4	6046	7.61	2.02467e-06
4	6137	7.71	1.91968e-06
4	6228	7.81	1.79913e-06
4	6319	7.91	1.66796e-06
4	6413	8.01	1.53044e-06
4	6504	8.11	1.39018e-06
4	6595	8.21	1.25018e-06
4	6686	8.31	1.11291e-06
4	6777	8.41	9.80339e-07
4	6868	8.51	8.54002e-07
4	6959	8.61	7.35044e-07
4	7050	8.71	6.24274e-07
4	7141	8.81	5.22206e-07
4	7232	8.91	4.2911e-07
4	7326	9.01	3.45041e-07
4	7417	9.11	2.69888e-07
4	7508	9.21	2.03394e-07
4	7599	9.31	1.45199e-07
4	7690	9.41	9.48539e-08
4	7781	9.51	5.18526e-08
4	7872	9.61	1.56462e-08
4	7963	9.71	-1.43366e-08
4	8054	9.81	-3.86756e-08
4	8145	9.91	-5.79483e-08
4	8268	10.01	-7.27191e-08
4	8361	10.11	-8.35328e-08
4	8454	10.21	-9.09047e-08
4	8547	10.31	-9.53222e-08
4	8640	10.41	-9.72364e-08
4	8733	10.51	-9.7063e-08
4	8826	10.61	-9.51793e-08
4	8919	10.71	-9.19272e-08
4	9012	10.81	-8.76099e-08
4	9105	10.91	-8.24976e-08
4	9201	11.01	-7.68239e-08
4	9294	11.11	-7.07914e-08
4	9387	11.21	-6.45734e-08
4	9480	11.31	-5.83135e-08
4	9573	11.41	-5.21325e-08
4	9666	11.51	-4.6127e-08
4	9759	11.61	-4.0373e-08
4	9852	11.71	-3.49289e-08
4	9945	11.81	-2.98357e-08
4	10038	11.91	-2.51227e-08
4	10134	12.01	-2.08054e-08
4	10227	12.11	-1.6891e-08
4	10320	12.21	-1.33767e-08
4	10413	12.31	-1.02538e-08
4	10506	12.41	-7.50759e-09
4	10599	12.51	-5.12017e-09
4	10692	12.61	-3.07026e-09
4	10785	12.71	-1.33298e-09
4	10878	12.81	1.15818e-10
4	10971	12.91	1.30242e-09
4	11067	13.01	2.25242e-09
4	11160	13.11	2.99138e-09
4	11253	13.21	3.54419e-09
4	11346	13.31	3.93356e-09
[...]
31	77881	85.600121926368	2
31	77972	85.700126192533	2
31	78063	85.800117459232	2
31	78154	85.900121726472	2
31	78248	86.000125994261	2
31	78339	86.100117262604	2
31	78430	86.200121531506	2
31	78521	86.300125800972	2
31	78612	86.400130071005	2
31	78703	86.500121341608	2
31	78794	86.600125612782	2
31	78885	86.70012988453	2
31	78976	86.800121156851	2
31	79067	86.900125429744	2
31	79161	87.00012970321	2
31	79252	87.100120977247	2
31	79343	87.200125251853	2
31	79434	87.300129527027	2
31	79525	87.400120802766	2
31	79616	87.500125079068	2
31	79707	87.60012935593	2
31	79798	87.70012063335	2
31	79889	87.800124911325	2
31	79980	87.900129189852	2
31	80074	88.000120468929	2
31	80165	88.100124748553	2
31	80256	88.200129028722	2
31	80347	88.300120309435	2
31	80438	88.400124590691	2
31	80529	88.500128872488	2
31	80620	88.600120154825	2
31	80711	88.700124437701	2
31	80802	88.800128721117	2
31	80893	88.900120005072	2
31	80987	89.000124289566	2
31	81078	89.100128574599	2
31	81169	89.200119860172	2
31	81260	89.300124146286	2
31	81351	89.400128432941	2
31	81442	89.500119720138	2
31	81533	89.600124007878	2
31	81624	89.700128296162	2
31	81715	89.800119584992	2
31	81806	89.900123874368	2
31	81900	90.000128164292	2
31	81991	90.100119454765	2
31	82082	90.200123745788	2
31	82173	90.300128037362	2
31	82264	90.400119329488	2
31	82355	90.500123622168	2
31	82446	90.600127915403	2
31	82537	90.700119209194	2
31	82628	90.800123503541	2
31	82719	90.900127798447	2
31	82813	91.000119093912	2
31	82904	91.100123389937	2
31	82995	91.200127686523	2
31	83086	91.300118983671	2
31	83177	91.400123281382	2
31	83268	91.500127579656	2
31	83359	91.600118878494	2
31	83450	91.700123177897	2
31	83541	91.800127477866	2
31	83632	91.900118778401	2
31	83726	92.000123079504	2
31	83817	92.100127381174	2
31	83908	92.200118683413	2
31	83999	92.30012298622	2
31	84090	92.400127289597	2
31	84181	92.500118593543	2
31	84272	92.60012289806	2
31	84363	92.700127203148	2
31	84454	92.800118508807	2
31	84545	92.900122815038	2
31	84639	93.00012712184	2
31	84730	93.100118429215	2
31	84821	93.200122737163	2
31	84912	93.300127045684	2
31	85003	93.400118354779	2
31	85094	93.500122664447	2
31	85185	93.60012697469	2
31	85276	93.700118285508	2
31	85367	93.8001225969	2
31	85458	93.900126908868	2
31	85552	94.000118221411	2
31	85643	94.10012253453	2
31	85734	94.200126848225	2
31	85825	94.300118162497	2
31	85916	94.400122477345	2
31	86007	94.50012679277	2
31	86098	94.600118108773	2
31	86189	94.700122425353	2
31	86280	94.800126742511	2
31	86371	94.900118060246	2
31	86465	95.00012237856	2
31	86556	95.100126697452	2
31	86647	95.200118016923	2
31	86738	95.300122336973	2
31	86829	95.400126657602	2
31	86920	95.50011797881	2
31	87011	95.600122300598	2
31	87102	95.700126622965	2
31	87193	95.800117945913	2
31	87284	95.90012226944	2
31	87378	96.000126593548	2
31	87469	96.100117918236	2
31	87560	96.200122243506	2
31	87651	96.300126569356	2
31	87742	96.400117895788	2
31	87833	96.5001222228	2
31	87924	96.600126550394	2
31	88015	96.700117878569	2
31	88106	96.800122207327	2
31	88197	96.900126536666	2
31	88291	97.000117866588	2
31	88382	97.100122197091	2
31	88473	97.200126528177	2
31	88564	97.300117859845	2
31	88655	97.400122192096	2
31	88746	97.50012652493	2
31	88837	97.600117858347	2
31	88928	97.700122192347	2
31	89019	97.800126526931	2
31	89110	97.900117862097	2
31	89204	98.000122197847	2
31	89295	98.100126534181	2
31	89386	98.200117871099	2
31	89477	98.3001222086	2
31	89568	98.400126546686	2
31	89659	98.500117885355	2
31	89750	98.600122224609	2
31	89841	98.700126564447	2
31	89932	98.80011790487	2
31	90023	98.900122245877	2
31	90117	99.000126587469	2
31	90208	99.100117929645	2
31	90299	99.200122272406	2
31	90390	99.300126615752	2
31	90481	99.400117959683	2
31	90572	99.500122304199	2
31	90663	99.600126649301	2
31	90754	99.700117994988	2
31	90845	99.800122341261	2
31	90936	99.900126688119	2
32	915	2	0
32	1828	3	0
32	2741	4	0
32	3654	5	0
32	4567	6	0
32	5480	7	0
32	6393	8	0
32	7306	9	0
32	8220	10	0
32	9179	11	0
32	10112	12	0
32	11045	13	0
32	11978	14	0
32	12911	15	0
32	13844	16	0
32	14777	17	0
32	15710	18	0
32	16643	19	0
32	17576	20	0
32	18509	21	0
32	19442	22	0
32	20375	23	0
32	21308	24	0
32	22241	25	0
32	23174	26	0
32	24107	27	0
32	25040	28	0
32	25973	29	0
32	26943	30	0
32	27866	31	0
32	28789	32	0
32	29712	33	0
32	30760	34	0
32	31673	35	0
32	32586	36	0
32	33499	37	0
32	34412	38	0
32	35325	39	0
32	36238	40	0
32	37151	41	0
32	38064	42	0
32	38977	43	0
32	39890	44	0
32	40803	45	0
32	41716	46	0
32	42629	47	0
32	43542	48	0
32	44455	49	0
32	45368	50	0
32	46281	51	0
32	47194	52	0
32	48107	53	0
32	49020	54	0
32	49933	55	0
32	50846	56	0
32	51759	57	0
32	52672	58	0
32	53585	59	0
32	54498	60	0
32	55411	61	0
32	56324	62	0
32	57237	63	0
32	58150	64	0
32	59063	65	0
32	59976	66	0
32	60889	67	0
32	61802	68	0
32	62715	69	0
32	63628	70	0
32	64541	71	0
32	65454	72	0
32	66367	73	0
32	67280	74	0
32	68193	75	0
32	69106	76	0
32	70019	77	0
32	70932	78	0
32	71845	79	0
32	72758	80	0
32	73671	81	0
32	74584	82	0
32	75497	83	0
32	76410	84	0
32	77323	85	0
32	78236	86	0
32	79149	87	0
32	80062	88	0
32	80975	89	0
32	81888	90	0
32	82801	91	0
32	83714	92	0
32	84627	93	0
32	85540	94	0
32	86453	95	0
32	87366	96	0
32	88279	97	0
32	89192	98	0
32	90105	99	0
32	91018	100	0
33	915	2	0.008306279496
33	1828	3	0.00936819944
33	2741	4	0.009381199438
33	3654	5	0.00936819943
33	4567	6	0.00936819943
33	5480	7	0.00936819943
33	6393	8	0.00936819943
33	7306	9	0.00936819943
33	8220	10	0.00936819943
33	9179	11	0.009427199207
33	10112	12	0.009368197036
33	11045	13	0.009368192
33	11978	14	0.009368184779
33	12911	15	0.009368176235
33	13844	16	0.00936816706
33	14777	17	0.009381157755
33	15710	18	0.009368148655
33	16643	19	0.009368139988
33	17576	20	0.009368131884
33	18509	21	0.009368124418
33	19442	22	0.009368117612
33	20375	23	0.009368111464
33	21308	24	0.00938110594
33	22241	25	0.009368101015
33	23174	26	0.009368096639
33	24107	27	0.009368092769
33	25040	28	0.009368089359
33	25973	29	0.009368086357
33	26943	30	0.009517083726
33	27866	31	0.009368081423
33	28789	32	0.009368079409
33	29712	33	0.00938107765
33	30760	34	0.009804004285
33	31673	35	0.009367980927
33	32586	36	0.009367836844
33	33499	37	0.009367640569
33	34412	38	0.009367444197
33	35325	39	0.009367265283
33	36238	40	0.009380102881
33	37151	41	0.009366952014
33	38064	42	0.009366808383
33	38977	43	0.009366668981
33	39890	44	0.009379517439
33	40803	45	0.009366438848
33	41716	46	0.009366424411
33	42629	47	0.009366435169
33	43542	48	0.009379445704
33	44455	49	0.009366451508
33	45368	50	0.009366454612
33	46281	51	0.009379456703
33	47194	52	0.00936645832
33	48107	53	0.009366459541
33	49020	54	0.009366460401
33	49933	55	0.009379460963
33	50846	56	0.009366461257
33	51759	57	0.009366461327
33	52672	58	0.0093664612
33	53585	59	0.00937946089
33	54498	60	0.009366460401
33	55411	61	0.009366459748
33	56324	62	0.009379458924
33	57237	63	0.009366457926
33	58150	64	0.009366456747
33	59063	65	0.009366455378
33	59976	66	0.009379453797
33	60889	67	0.009366451989
33	61802	68	0.009366449928
33	62715	69	0.00936644758
33	63628	70	0.009379444902
33	64541	71	0.009366441848
33	65454	72	0.009366438353
33	66367	73	0.009379434336
33	67280	74	0.009366429708
33	68193	75	0.009366424346
33	69106	76	0.009366418097
33	70019	77	0.00937941077
33	70932	78	0.009366402134
33	71845	79	0.009366391899
33	72758	80	0.009379379715
33	73671	81	0.009366365173
33	74584	82	0.009366347839
33	75497	83	0.009366327253
33	76410	84	0.009379371412
33	77323	85	0.009366386584
33	78236	86	0.009366341986
33	79149	87	0.00936628747
33	80062	88	0.009379231031
33	80975	89	0.009366176354
33	81888	90	0.00936612233
33	82801	91	0.00937906743
33	83714	92	0.009366011446
33	84627	93	0.009365954698
33	85540	94	0.009378897463
33	86453	95	0.009365839886
33	87366	96	0.009365782047
33	88279	97	0.009378723995
33	89192	98	0.009365665776
33	90105	99	0.009365607413
33	91018	100	0.009378548941
34	915	2	0
34	1828	3	0
34	2741	4	0
34	3654	5	0
34	4567	6	0
34	5480	7	0
34	6393	8	0
34	7306	9	0
34	8220	10	0
34	9179	11	0
34	10112	12	0
34	11045	13	0
34	11978	14	0
34	12911	15	0
34	13844	16	0
34	14777	17	0
34	15710	18	0
34	16643	19	0
34	17576	20	0
34	18509	21	0
34	19442	22	0
34	20375	23	0
34	21308	24	0
34	22241	25	0
34	23174	26	0
34	24107	27	0
34	25040	28	0
34	25973	29	0
34	26943	30	0
34	27866	31	0
34	28789	32	0
34	29712	33	0
34	30760	34	0
34	31673	35	0
34	32586	36	0
34	33499	37	0
34	34412	38	0
34	35325	39	0
34	36238	40	0
34	37151	41	0
34	38064	42	0
34	38977	43	0
34	39890	44	0
34	40803	45	0
34	41716	46	0
34	42629	47	0
34	43542	48	0
34	44455	49	0
34	45368	50	0
34	46281	51	0
34	47194	52	0
34	48107	53	0
34	49020	54	0
34	49933	55	0
34	50846	56	0
34	51759	57	0
34	52672	58	0
34	53585	59	0
34	54498	60	0
34	55411	61	0
34	56324	62	0
34	57237	63	0
34	58150	64	0
34	59063	65	0
34	59976	66	0
34	60889	67	0
34	61802	68	0
34	62715	69	0
34	63628	70	0
34	64541	71	0
34	65454	72	0
34	66367	73	0
34	67280	74	0
34	68193	75	0
34	69106	76	0
34	70019	77	0
34	70932	78	0
34	71845	79	0
34	72758	80	0
34	73671	81	0
34	74584	82	0
34	75497	83	0
34	76410	84	0
34	77323	85	0
34	78236	86	0
34	79149	87	0
34	80062	88	0
34	80975	89	0
34	81888	90	0
34	82801	91	0
34	83714	92	0
34	84627	93	0
34	85540	94	0
34	86453	95	0
34	87366	96	0
34	88279	97	0
34	89192	98	0
34	90105	99	0
34	91018	100	0
35	916	2	1
35	1829	3	1
35	2742	4	1
35	3655	5	1
35	4568	6	1
35	5481	7	1
35	6394	8	1
35	7307	9	1
35	8221	10	1
35	9180	11	1
35	10113	12	1
35	11046	13	1
35	11979	14	1
35	12912	15	1
35	13845	16	1
35	14778	17	1
35	15711	18	1
35	16644	19	1
35	17577	20	1
35	18510	21	1
35	19443	22	1
35	20376	23	1
35	21309	24	1
35	22242	25	1
35	23175	26	1
35	24108	27	1
35	25041	28	1
35	25974	29	1
35	26944	30	1
35	27867	31	1
35	28790	32	1
35	29713	33	1
35	30761	34	1
35	31674	35	1
35	32587	36	1
35	33500	37	1
35	34413	38	1
35	35326	39	1
35	36239	40	1
35	37152	41	1
35	38065	42	1
35	38978	43	1
35	39891	44	1
35	40804	45	1
35	41717	46	1
35	42630	47	1
35	43543	48	1
35	44456	49	1
35	45369	50	1
35	46282	51	1
35	47195	52	1
35	48108	53	1
35	49021	54	1
35	49934	55	1
35	50847	56	1
35	51760	57	1
35	52673	58	1
35	53586	59	1
35	54499	60	1
35	55412	61	1
35	56325	62	1
35	57238	63	1
35	58151	64	1
35	59064	65	1
35	59977	66	1
35	60890	67	1
35	61803	68	1
35	62716	69	1
35	63629	70	1
35	64542	71	1
35	65455	72	1
35	66368	73	1
35	67281	74	1
35	68194	75	1
35	69107	76	1
35	70020	77	1
35	70933	78	1
35	71846	79	1
35	72759	80	1
35	73672	81	1
35	74585	82	1
35	75498	83	1
35	76411	84	1
35	77324	85	1
35	78237	86	1
35	79150	87	1
35	80063	88	1
35	80976	89	1
35	81889	90	1
35	82802	91	1
35	83715	92	1
35	84628	93	1
35	85541	94	1
35	86454	95	1
35	87367	96	1
35	88280	97	1
35	89193	98	1
35	90106	99	1
35	91019	100	1
36	916	2	0.00830629951
36	1829	3	0.00936819944
36	2742	4	0.009381199438
36	3655	5	0.00936819943
36	4568	6	0.00936819943
36	5481	7	0.00936819943
36	6394	8	0.00936819943
36	7307	9	0.00936819943
36	8221	10	0.00936819943
36	9180	11	0.009426199235
36	10113	12	0.009368197155
36	11046	13	0.009368192198
36	11979	14	0.009368185022
36	12912	15	0.009368176498
36	13845	16	0.009368167324
36	14778	17	0.009381158008
36	15711	18	0.009368148891
36	16644	19	0.009368140204
36	17577	20	0.009368132079
36	18510	21	0.009368124592
36	19443	22	0.009368117765
36	20376	23	0.009368111599
36	21309	24	0.009381106058
36	22242	25	0.009368101118
36	23175	26	0.009368096728
36	24108	27	0.009368092846
36	25041	28	0.009368089425
36	25974	29	0.009368086415
36	26944	30	0.009518129811
36	27867	31	0.009368081466
36	28790	32	0.009368079445
36	29713	33	0.009381077682
36	30761	34	0.00973786799
36	31674	35	0.009367979742
36	32587	36	0.009367834485
36	33500	37	0.009367637963
36	34413	38	0.00936744177
36	35326	39	0.009367263132
36	36239	40	0.009380101074
36	37152	41	0.009366950685
36	38065	42	0.009366807705
36	38978	43	0.009366669076
36	39891	44	0.00937951829
36	40804	45	0.009366440311
36	41717	46	0.009366426313
36	42630	47	0.009366437367
36	43543	48	0.009379448102
36	44456	49	0.009366454042
36	45369	50	0.00936645724
36	46282	51	0.009379459399
36	47195	52	0.009366461066
36	48108	53	0.009366462324
36	49021	54	0.009366463213
36	49934	55	0.009379463798
36	50847	56	0.00936646411
36	51760	57	0.009366464194
36	52673	58	0.00936646408
36	53586	59	0.009379463779
36	54499	60	0.009366463299
36	55412	61	0.009366462652
36	56325	62	0.009379461835
36	57238	63	0.009366460842
36	58151	64	0.009366459667
36	59064	65	0.009366458302
36	59977	66	0.009379456725
36	60890	67	0.009366454919
36	61803	68	0.009366452862
36	62716	69	0.009366450515
36	63629	70	0.00937944784
36	64542	71	0.009366444787
36	65455	72	0.009366441294
36	66368	73	0.009379437279
36	67281	74	0.009366432652
36	68194	75	0.009366427292
36	69107	76	0.009366421043
36	70020	77	0.009379413718
36	70933	78	0.009366405083
36	71846	79	0.009366394848
36	72759	80	0.009379382666
36	73672	81	0.009366368124
36	74585	82	0.00936635079
36	75498	83	0.009366330206
36	76411	84	0.00937937392
36	77324	85	0.009366390054
36	78237	86	0.00936634573
36	79150	87	0.009366291051
36	80063	88	0.009379234281
36	80976	89	0.009366179363
36	81889	90	0.009366125274
36	82802	91	0.00937907038
36	83715	92	0.009366014408
36	84628	93	0.009365957664
36	85541	94	0.009378900429
36	86454	95	0.009365842851
36	87367	96	0.009365785012
36	88280	97	0.00937872696
36	89193	98	0.009365668741
36	90106	99	0.009365610378
36	91019	100	0.009378551906
37	916	2	0
37	1829	3	0
37	2742	4	0
37	3655	5	0
37	4568	6	0
37	5481	7	0
37	6394	8	0
37	7307	9	0
37	8221	10	0
37	9180	11	0
37	10113	12	0
37	11046	13	0
37	11979	14	0
37	12912	15	0
37	13845	16	0
37	14778	17	0
37	15711	18	0
37	16644	19	0
37	17577	20	0
37	18510	21	0
37	19443	22	0
37	20376	23	0
37	21309	24	0
37	22242	25	0
37	23175	26	0
37	24108	27	0
37	25041	28	0
37	25974	29	0
37	26944	30	0
37	27867	31	0
37	28790	32	0
37	29713	33	0
37	30761	34	0
37	31674	35	0
37	32587	36	0
37	33500	37	0
37	34413	38	0
37	35326	39	0
37	36239	40	0
37	37152	41	0
37	38065	42	0
37	38978	43	0
37	39891	44	0
37	40804	45	0
37	41717	46	0
37	42630	47	0
37	43543	48	0
37	44456	49	0
37	45369	50	0
37	46282	51	0
37	47195	52	0
37	48108	53	0
37	49021	54	0
37	49934	55	0
37	50847	56	0
37	51760	57	0
37	52673	58	0
37	53586	59	0
37	54499	60	0
37	55412	61	0
37	56325	62	0
37	57238	63	0
37	58151	64	0
37	59064	65	0
37	59977	66	0
37	60890	67	0
37	61803	68	0
37	62716	69	0
37	63629	70	0
37	64542	71	0
37	65455	72	0
37	66368	73	0
37	67281	74	0
37	68194	75	0
37	69107	76	0
37	70020	77	0
37	70933	78	0
37	71846	79	0
37	72759	80	0
37	73672	81	0
37	74585	82	0
37	75498	83	0
37	76411	84	0
37	77324	85	0
37	78237	86	0
37	79150	87	0
37	80063	88	0
37	80976	89	0
37	81889	90	0
37	82802	91	0
37	83715	92	0
37	84628	93	0
37	85541	94	0
37	86454	95	0
37	87367	96	0
37	88280	97	0
37	89193	98	0
37	90106	99	0
37	91019	100	0
38	917	2	2
38	1830	3	2
38	2743	4	2
38	3656	5	2
38	4569	6	2
38	5482	7	2
38	6395	8	2
38	7308	9	2
38	8222	10	2
38	9181	11	2
38	10114	12	2
38	11047	13	2
38	11980	14	2
38	12913	15	2
38	13846	16	2
38	14779	17	2
38	15712	18	2
38	16645	19	2
38	17578	20	2
38	18511	21	2
38	19444	22	2
38	20377	23	2
38	21310	24	2
38	22243	25	2
38	23176	26	2
38	24109	27	2
38	25042	28	2
38	25975	29	2
38	26945	30	2
38	27868	31	2
38	28791	32	2
38	29714	33	2
38	30762	34	2
38	31675	35	2
38	32588	36	2
38	33501	37	2
38	34414	38	2
38	35327	39	2
38	36240	40	2
38	37153	41	2
38	38066	42	2
38	38979	43	2
38	39892	44	2
38	40805	45	2
38	41718	46	2
38	42631	47	2
38	43544	48	2
38	44457	49	2
38	45370	50	2
38	46283	51	2
38	47196	52	2
38	48109	53	2
38	49022	54	2
38	49935	55	2
38	50848	56	2
38	51761	57	2
38	52674	58	2
38	53587	59	2
38	54500	60	2
38	55413	61	2
38	56326	62	2
38	57239	63	2
38	58152	64	2
38	59065	65	2
38	59978	66	2
38	60891	67	2
38	61804	68	2
38	62717	69	2
38	63630	70	2
38	64543	71	2
38	65456	72	2
38	66369	73	2
38	67282	74	2
38	68195	75	2
38	69108	76	2
38	70021	77	2
38	70934	78	2
38	71847	79	2
38	72760	80	2
38	73673	81	2
38	74586	82	2
38	75499	83	2
38	76412	84	2
38	77325	85	2
38	78238	86	2
38	79151	87	2
38	80064	88	2
38	80977	89	2
38	81890	90	2
38	82803	91	2
38	83716	92	2
38	84629	93	2
38	85542	94	2
38	86455	95	2
38	87368	96	2
38	88281	97	2
38	89194	98	2
38	90107	99	2
38	91020	100	2
39	917	2	0.008306279496
39	1830	3	0.00936819944
39	2743	4	0.009381199438
39	3656	5	0.00936819943
39	4569	6	0.00936819943
39	5482	7	0.00936819943
39	6395	8	0.00936819943
39	7308	9	0.00936819943
39	8222	10	0.00936819943
39	9181	11	0.009426199224
39	10114	12	0.009368197095
39	11047	13	0.009368192085
39	11980	14	0.009368184866
39	12913	15	0.009368176314
39	13846	16	0.009368167122
39	14779	17	0.009381157799
39	15712	18	0.009368148681
39	16645	19	0.009368139999
39	17578	20	0.009368131883
39	18511	21	0.009368124408
39	19444	22	0.009368117594
39	20377	23	0.009368111442
39	21310	24	0.009381105914
39	22243	25	0.009368100988
39	23176	26	0.009368096611
39	24109	27	0.009368092741
39	25042	28	0.009368089331
39	25975	29	0.009368086331
39	26945	30	0.009485083701
39	27868	31	0.009368081401
39	28791	32	0.009368079387
39	29714	33	0.009381077631
39	30762	34	0.009770957498
39	31675	35	0.00936797409
39	32588	36	0.009367823225
39	33501	37	0.009367625198
39	34414	38	0.009367429694
39	35327	39	0.009367252118
39	36240	40	0.009380090934
39	37153	41	0.00936694124
39	38066	42	0.009366798857
39	38979	43	0.009366660772
39	39892	44	0.009379511482
39	40805	45	0.009366437401
39	41718	46	0.009366426018
39	42631	47	0.00936643765
39	43544	48	0.009379448256
39	44457	49	0.009366454065
39	45370	50	0.009366457228
39	46283	51	0.009379459391
39	47196	52	0.009366461065
39	48109	53	0.009366462324
39	49022	54	0.009366463214
39	49935	55	0.009379463798
39	50848	56	0.00936646411
39	51761	57	0.009366464194
39	52674	58	0.00936646408
39	53587	59	0.009379463779
39	54500	60	0.009366463299
39	55413	61	0.009366462652
39	56326	62	0.009379461835
39	57239	63	0.009366460842
39	58152	64	0.009366459667
39	59065	65	0.009366458302
39	59978	66	0.009379456725
39	60891	67	0.009366454919
39	61804	68	0.009366452862
39	62717	69	0.009366450515
39	63630	70	0.00937944784
39	64543	71	0.009366444787
39	65456	72	0.009366441294
39	66369	73	0.009379437279
39	67282	74	0.009366432652
39	68195	75	0.009366427292
39	69108	76	0.009366421043
39	70021	77	0.009379413718
39	70934	78	0.009366405083
39	71847	79	0.009366394848
39	72760	80	0.009379382666
39	73673	81	0.009366368124
39	74586	82	0.00936635079
39	75499	83	0.009366330206
39	76412	84	0.00937937392
39	77325	85	0.009366390054
39	78238	86	0.00936634573
39	79151	87	0.009366291051
39	80064	88	0.009379234281
39	80977	89	0.009366179363
39	81890	90	0.009366125274
39	82803	91	0.00937907038
39	83716	92	0.009366014408
39	84629	93	0.009365957664
39	85542	94	0.009378900429
39	86455	95	0.009365842851
39	87368	96	0.009365785012
39	88281	97	0.00937872696
39	89194	98	0.009365668741
39	90107	99	0.009365610378
39	91020	100	0.009378551906
40	917	2	0
40	1830	3	0
40	2743	4	0
40	3656	5	0
40	4569	6	0
40	5482	7	0
40	6395	8	0
40	7308	9	0
40	8222	10	0
40	9181	11	0
40	10114	12	0
40	11047	13	0
40	11980	14	0
40	12913	15	0
40	13846	16	0
40	14779	17	0
40	15712	18	0
40	16645	19	0
40	17578	20	0
40	18511	21	0
40	19444	22	0
40	20377	23	0
40	21310	24	0
40	22243	25	0
40	23176	26	0
40	24109	27	0
40	25042	28	0
40	25975	29	0
40	26945	30	0
40	27868	31	0
40	28791	32	0
40	29714	33	0
40	30762	34	0
40	31675	35	0
40	32588	36	0
40	33501	37	0
40	34414	38	0
40	35327	39	0
40	36240	40	0
40	37153	41	0
40	38066	42	0
40	38979	43	0
40	39892	44	0
40	40805	45	0
40	41718	46	0
40	42631	47	0
40	43544	48	0
40	44457	49	0
40	45370	50	0
40	46283	51	0
40	47196	52	0
40	48109	53	0
40	49022	54	0
40	49935	55	0
40	50848	56	0
40	51761	57	0
40	52674	58	0
40	53587	59	0
40	54500	60	0
40	55413	61	0
40	56326	62	0
40	57239	63	0
40	58152	64	0
40	59065	65	0
40	59978	66	0
40	60891	67	0
40	61804	68	0
40	62717	69	0
40	63630	70	0
40	64543	71	0
40	65456	72	0
40	66369	73	0
40	67282	74	0
40	68195	75	0
40	69108	76	0
40	70021	77	0
40	70934	78	0
40	71847	79	0
40	72760	80	0
40	73673	81	0
40	74586	82	0
40	75499	83	0
40	76412	84	0
40	77325	85	0
40	78238	86	0
40	79151	87	0
40	80064	88	0
40	80977	89	0
40	81890	90	0
40	82803	91	0
40	83716	92	0
40	84629	93	0
40	85542	94	0
40	86455	95	0
40	87368	96	0
40	88281	97	0
40	89194	98	0
40	90107	99	0
40	91020	100	0

