file 5096704 1720710452                                         
version 3
run BreakRanksNoGui-286-20240711-17:07:11-296823
attr configname BreakRanksNoGui
attr datetime 20240711-17:07:11
attr datetimef 20240711-170711
attr experiment BreakRanksNoGui
attr inifile omnetpp.ini
attr iterationvars "$nCars=16, $platoonSize=12, $nLanes=1, $ploegH=0.5, $controller=1, $headway=0.1, $leaderHeadway=1.2, $leaderSpeed=130, $breakRanksSafetyDistance=15, $minSpeed=120, $maxSpeed=140, $beaconInterval=0.1, $priority=4, $packetSize=200, $sController=\"CACC\", $0=2, $1=0"
attr iterationvarsd nCars=16/platoonSize=12/nLanes=1/ploegH=0.5/controller=1/headway=0.1/leaderHeadway=1.2/leaderSpeed=130/breakRanksSafetyDistance=15/minSpeed=120/maxSpeed=140/beaconInterval=0.1/priority=4/packetSize=200/sController=CACC/2/0
attr iterationvarsf nCars=16,platoonSize=12,nLanes=1,ploegH=0.5,controller=1,headway=0.1,leaderHeadway=1.2,leaderSpeed=130,breakRanksSafetyDistance=15,minSpeed=120,maxSpeed=140,beaconInterval=0.1,priority=4,packetSize=200,sController=CACC,2,0-
attr measurement "$nCars=16, $platoonSize=12, $nLanes=1, $ploegH=0.5, $controller=1, $headway=0.1, $leaderHeadway=1.2, $leaderSpeed=130, $breakRanksSafetyDistance=15, $minSpeed=120, $maxSpeed=140, $beaconInterval=0.1, $priority=4, $packetSize=200, $sController=\"CACC\", $0=2, $1=0"
attr network Highway
attr processid 296823
attr repetition 6
attr replication #6
attr resultdir results
attr runnumber 286
attr seedset 6
itervar beaconInterval 0.1
itervar breakRanksSafetyDistance 15
itervar controller 1
itervar headway 0.1
itervar leaderHeadway 1.2
itervar leaderSpeed 130
itervar maxSpeed 140
itervar minSpeed 120
itervar nCars 16
itervar nLanes 1
itervar packetSize 200
itervar platoonSize 12
itervar ploegH 0.5
itervar priority 4
itervar sController "\"CACC\""
config image-path ../../../veins/images
config repeat 10
config extends BreakRanks
config *.manager.command "\"sumo\""
config *.manager.ignoreGuiCommands true
config output-vector-file "results/BreakRanks_1_0.1_130_15_12 /result_6.vec"
config output-scalar-file "results/BreakRanks_1_0.1_130_15_12 /result_6.sca"
config extends Platooning
config *.node[*].scenario_type "\"BreakRanksScenario\""
config *.manager.command "\"sumo-gui\""
config *.node[*].scenario_type "\"SimpleScenario\""
config cmdenv-express-mode true
config cmdenv-autoflush true
config cmdenv-status-frequency 15s
config num-rngs 6
config network Highway
config debug-on-errors true
config print-undisposed true
config *.playgroundSizeX 65000m
config *.playgroundSizeY 25000m
config *.playgroundSizeZ 50m
config sim-time-limit "100 s"
config *.annotations.draw false
config *.obstacles.debug false
config *.world.useTorus false
config *.world.use2D false
config *.manager.updateInterval 0.01s
config *.manager.host "\"localhost\""
config *.manager.moduleType "\"org.car2x.plexe.PlatoonCar\""
config *.manager.moduleName "\"node\""
config *.manager.moduleDisplayString "\"\""
config *.manager.autoShutdown true
config *.manager.margin 25
config *.connectionManager.sendDirect true
config *.connectionManager.maxInterfDist 2600m
config *.connectionManager.drawMaxIntfDist false
config *.**.nic.mac1609_4.useServiceChannel false
config *.**.nic.mac1609_4.txPower 100mW
config *.**.nic.mac1609_4.bitrate 6Mbps
config *.**.nic.mac1609_4.useAcks true
config *.**.nic.mac1609_4.ackErrorRate 0.0
config *.**.nic.mac1609_4.frameErrorRate 0.0
config *.**.nic.phy80211p.minPowerLevel -94dBm
config *.**.nic.phy80211p.maxTXPower 100mW
config *.**.nic.phy80211p.useNoiseFloor true
config *.**.nic.phy80211p.noiseFloor -95dBm
config *.**.nic.phy80211p.decider "xmldoc(\"config.xml\")"
config *.**.nic.phy80211p.analogueModels "xmldoc(\"config.xml\")"
config *.**.nic.phy80211p.usePropagationDelay true
config *.node[*].mobility.x 0
config *.node[*].mobility.y 0
config *.node[*].mobility.z 1.895
config seed-set 6
config **.seed 6
config *.node[*].prot.rng-0 2
config *.node[*].appl.rng-0 3
config *.node[*].scenario.rng-0 4
config **.traffic.rng-0 5
config *.manager.configFile "\"./sumocfg/freeway.sumo.cfg\""
config *.manager.launchConfig "xmldoc(\"./sumocfg/freeway.launchd.xml\")"
config **.numberOfCars 16
config **.numberOfCarsPerPlatoon 12
config **.numberOfLanes 1
config *.node[*].helper_type "\"PositionHelper\""
config *.node[*].scenario.caccC1 0.5
config *.node[*].scenario.caccXi 1
config *.node[*].scenario.caccOmegaN "0.2 Hz"
config *.node[*].scenario.caccSpacing "2 m"
config *.node[*].scenario.engineTau "0.5 s"
config *.node[*].scenario.ploegH 0.5s
config *.node[*].scenario.ploegKp 0.2
config *.node[*].scenario.ploegKd 0.7
config *.node[*].scenario.useRealisticEngine false
config *.node[*].scenario.useControllerAcceleration true
config *.node[*].scenario.nLanes 1
config **.numericController 1
config **.headway 0.1s
config *.node[*].scenario.accHeadway 0.1s
config *.node[*].scenario.leaderHeadway 1.2s
config *.node[*].scenario.leaderSpeed 130kmph
config *.node[*].appl_type "\"SimplePlatooningApp\""
config *.node[*].appl.*.scalar-recording true
config *.node[*].appl.*.vector-recording true
config *.node[0].appl.breakRanksSafetyDistance 15m
config *.node[*].appl.minSpeed 120kmph
config *.node[*].appl.maxSpeed 140kmph
config *.node[*].protocol_type "\"SimplePlatooningBeaconing\""
config *.node[*].prot.*.scalar-recording true
config *.node[*].prot.*.vector-recording true
config *.node[*].prot.beaconingInterval 0.1s
config *.node[*].prot.priority 4
config *.node[*].prot.packetSize 200
config **.traffic_type "\"PlatoonsTrafficManager\""
config **.traffic.platoonInsertTime "1 s"
config **.traffic.platoonInsertSpeed 130kmph
config **.traffic.nCars 16
config **.traffic.platoonSize 12
config **.traffic.nLanes 1
config **.traffic.platooningVType "\"vtypeauto\""
config **.traffic.controller "\"CACC\""
config **.traffic.platoonInsertDistance 2m
config **.traffic.platoonInsertHeadway 0s
config **.traffic.platoonLeaderHeadway 1.2s
config **.scalar-recording false
config **.vector-recording false

vector 0 Highway.node[0].appl distance ETV
vector 1 Highway.node[0].appl relativeSpeed ETV
vector 2 Highway.node[0].appl nodeId ETV
vector 3 Highway.node[0].appl acceleration ETV
vector 4 Highway.node[0].appl controllerAcceleration ETV
vector 5 Highway.node[0].appl speed ETV
vector 6 Highway.node[0].appl posx ETV
vector 7 Highway.node[0].appl posy ETV
vector 8 Highway.node[1].appl distance ETV
vector 9 Highway.node[1].appl relativeSpeed ETV
vector 10 Highway.node[1].appl nodeId ETV
vector 11 Highway.node[1].appl acceleration ETV
vector 12 Highway.node[1].appl controllerAcceleration ETV
vector 13 Highway.node[1].appl speed ETV
vector 14 Highway.node[1].appl posx ETV
vector 15 Highway.node[1].appl posy ETV
vector 16 Highway.node[2].appl distance ETV
vector 17 Highway.node[2].appl relativeSpeed ETV
vector 18 Highway.node[2].appl nodeId ETV
vector 19 Highway.node[2].appl acceleration ETV
vector 20 Highway.node[2].appl controllerAcceleration ETV
vector 21 Highway.node[2].appl speed ETV
vector 22 Highway.node[2].appl posx ETV
vector 23 Highway.node[2].appl posy ETV
vector 24 Highway.node[3].appl distance ETV
vector 25 Highway.node[3].appl relativeSpeed ETV
vector 26 Highway.node[3].appl nodeId ETV
vector 27 Highway.node[3].appl acceleration ETV
vector 28 Highway.node[3].appl controllerAcceleration ETV
vector 29 Highway.node[3].appl speed ETV
vector 30 Highway.node[3].appl posx ETV
vector 31 Highway.node[3].appl posy ETV
vector 32 Highway.node[4].appl distance ETV
vector 33 Highway.node[4].appl relativeSpeed ETV
vector 34 Highway.node[4].appl nodeId ETV
vector 35 Highway.node[4].appl acceleration ETV
vector 36 Highway.node[4].appl controllerAcceleration ETV
vector 37 Highway.node[4].appl speed ETV
vector 38 Highway.node[4].appl posx ETV
vector 39 Highway.node[4].appl posy ETV
vector 40 Highway.node[5].appl distance ETV
vector 41 Highway.node[5].appl relativeSpeed ETV
vector 42 Highway.node[5].appl nodeId ETV
vector 43 Highway.node[5].appl acceleration ETV
vector 44 Highway.node[5].appl controllerAcceleration ETV
vector 45 Highway.node[5].appl speed ETV
vector 46 Highway.node[5].appl posx ETV
vector 47 Highway.node[5].appl posy ETV
vector 48 Highway.node[6].appl distance ETV
vector 49 Highway.node[6].appl relativeSpeed ETV
vector 50 Highway.node[6].appl nodeId ETV
vector 51 Highway.node[6].appl acceleration ETV
vector 52 Highway.node[6].appl controllerAcceleration ETV
vector 53 Highway.node[6].appl speed ETV
vector 54 Highway.node[6].appl posx ETV
vector 55 Highway.node[6].appl posy ETV
vector 56 Highway.node[7].appl distance ETV
vector 57 Highway.node[7].appl relativeSpeed ETV
vector 58 Highway.node[7].appl nodeId ETV
vector 59 Highway.node[7].appl acceleration ETV
vector 60 Highway.node[7].appl controllerAcceleration ETV
vector 61 Highway.node[7].appl speed ETV
vector 62 Highway.node[7].appl posx ETV
vector 63 Highway.node[7].appl posy ETV
vector 64 Highway.node[8].appl distance ETV
vector 65 Highway.node[8].appl relativeSpeed ETV
vector 66 Highway.node[8].appl nodeId ETV
vector 67 Highway.node[8].appl acceleration ETV
vector 68 Highway.node[8].appl controllerAcceleration ETV
vector 69 Highway.node[8].appl speed ETV
vector 70 Highway.node[8].appl posx ETV
vector 71 Highway.node[8].appl posy ETV
vector 72 Highway.node[9].appl distance ETV
vector 73 Highway.node[9].appl relativeSpeed ETV
vector 74 Highway.node[9].appl nodeId ETV
vector 75 Highway.node[9].appl acceleration ETV
vector 76 Highway.node[9].appl controllerAcceleration ETV
vector 77 Highway.node[9].appl speed ETV
vector 78 Highway.node[9].appl posx ETV
vector 79 Highway.node[9].appl posy ETV
vector 80 Highway.node[10].appl distance ETV
vector 81 Highway.node[10].appl relativeSpeed ETV
vector 82 Highway.node[10].appl nodeId ETV
vector 83 Highway.node[10].appl acceleration ETV
vector 84 Highway.node[10].appl controllerAcceleration ETV
vector 85 Highway.node[10].appl speed ETV
vector 86 Highway.node[10].appl posx ETV
vector 87 Highway.node[10].appl posy ETV
vector 88 Highway.node[11].appl distance ETV
vector 89 Highway.node[11].appl relativeSpeed ETV
vector 90 Highway.node[11].appl nodeId ETV
vector 91 Highway.node[11].appl acceleration ETV
vector 92 Highway.node[11].appl controllerAcceleration ETV
vector 93 Highway.node[11].appl speed ETV
vector 94 Highway.node[11].appl posx ETV
vector 95 Highway.node[11].appl posy ETV
vector 96 Highway.node[12].appl distance ETV
vector 97 Highway.node[12].appl relativeSpeed ETV
vector 98 Highway.node[12].appl nodeId ETV
vector 99 Highway.node[12].appl acceleration ETV
vector 100 Highway.node[12].appl controllerAcceleration ETV
vector 101 Highway.node[12].appl speed ETV
vector 102 Highway.node[12].appl posx ETV
vector 103 Highway.node[12].appl posy ETV
vector 104 Highway.node[13].appl distance ETV
vector 105 Highway.node[13].appl relativeSpeed ETV
vector 106 Highway.node[13].appl nodeId ETV
vector 107 Highway.node[13].appl acceleration ETV
vector 108 Highway.node[13].appl controllerAcceleration ETV
vector 109 Highway.node[13].appl speed ETV
vector 110 Highway.node[13].appl posx ETV
vector 111 Highway.node[13].appl posy ETV
vector 112 Highway.node[14].appl distance ETV
vector 113 Highway.node[14].appl relativeSpeed ETV
vector 114 Highway.node[14].appl nodeId ETV
vector 115 Highway.node[14].appl acceleration ETV
vector 116 Highway.node[14].appl controllerAcceleration ETV
vector 117 Highway.node[14].appl speed ETV
vector 118 Highway.node[14].appl posx ETV
vector 119 Highway.node[14].appl posy ETV
vector 120 Highway.node[15].appl distance ETV
vector 121 Highway.node[15].appl relativeSpeed ETV
vector 122 Highway.node[15].appl nodeId ETV
vector 123 Highway.node[15].appl acceleration ETV
vector 124 Highway.node[15].appl controllerAcceleration ETV
vector 125 Highway.node[15].appl speed ETV
vector 126 Highway.node[15].appl posx ETV
vector 127 Highway.node[15].appl posy ETV
vector 128 Highway.node[2].prot frontDelay ETV
vector 129 Highway.node[2].prot frontDelayId ETV
vector 130 Highway.node[14].prot frontDelay ETV
vector 131 Highway.node[14].prot frontDelayId ETV
vector 132 Highway.node[13].prot frontDelay ETV
vector 133 Highway.node[13].prot frontDelayId ETV
vector 134 Highway.node[1].prot leaderDelay ETV
vector 135 Highway.node[1].prot leaderDelayId ETV
vector 136 Highway.node[1].prot frontDelay ETV
vector 137 Highway.node[1].prot frontDelayId ETV
vector 138 Highway.node[8].prot leaderDelay ETV
vector 139 Highway.node[8].prot leaderDelayId ETV
vector 140 Highway.node[9].prot leaderDelay ETV
vector 141 Highway.node[9].prot leaderDelayId ETV
vector 142 Highway.node[10].prot leaderDelay ETV
vector 143 Highway.node[10].prot leaderDelayId ETV
vector 144 Highway.node[11].prot leaderDelay ETV
vector 145 Highway.node[11].prot leaderDelayId ETV
vector 146 Highway.node[12].prot leaderDelay ETV
vector 147 Highway.node[12].prot leaderDelayId ETV
vector 148 Highway.node[13].prot leaderDelay ETV
vector 149 Highway.node[13].prot leaderDelayId ETV
vector 150 Highway.node[14].prot leaderDelay ETV
vector 151 Highway.node[14].prot leaderDelayId ETV
vector 152 Highway.node[15].prot leaderDelay ETV
vector 153 Highway.node[15].prot leaderDelayId ETV
vector 154 Highway.node[2].prot leaderDelay ETV
vector 155 Highway.node[2].prot leaderDelayId ETV
vector 156 Highway.node[3].prot leaderDelay ETV
vector 157 Highway.node[3].prot leaderDelayId ETV
vector 158 Highway.node[15].prot frontDelay ETV
vector 159 Highway.node[15].prot frontDelayId ETV
vector 160 Highway.node[12].prot frontDelay ETV
vector 161 Highway.node[12].prot frontDelayId ETV
vector 162 Highway.node[11].prot frontDelay ETV
vector 163 Highway.node[11].prot frontDelayId ETV
vector 164 Highway.node[9].prot frontDelay ETV
vector 165 Highway.node[9].prot frontDelayId ETV
vector 166 Highway.node[7].prot frontDelay ETV
vector 167 Highway.node[7].prot frontDelayId ETV
vector 168 Highway.node[3].prot frontDelay ETV
vector 169 Highway.node[3].prot frontDelayId ETV
vector 170 Highway.node[6].prot frontDelay ETV
vector 171 Highway.node[6].prot frontDelayId ETV
vector 172 Highway.node[8].prot frontDelay ETV
vector 173 Highway.node[8].prot frontDelayId ETV
vector 174 Highway.node[10].prot frontDelay ETV
vector 175 Highway.node[10].prot frontDelayId ETV
vector 176 Highway.node[5].prot leaderDelay ETV
vector 177 Highway.node[5].prot leaderDelayId ETV
vector 178 Highway.node[5].prot frontDelay ETV
vector 179 Highway.node[5].prot frontDelayId ETV
vector 180 Highway.node[6].prot leaderDelay ETV
vector 181 Highway.node[6].prot leaderDelayId ETV
vector 182 Highway.node[7].prot leaderDelay ETV
vector 183 Highway.node[7].prot leaderDelayId ETV
vector 184 Highway.node[0].prot nodeId ETV
vector 185 Highway.node[0].prot busyTime ETV
vector 186 Highway.node[0].prot collisions ETV
vector 187 Highway.node[1].prot nodeId ETV
vector 188 Highway.node[1].prot busyTime ETV
vector 189 Highway.node[1].prot collisions ETV
vector 190 Highway.node[2].prot nodeId ETV
vector 191 Highway.node[2].prot busyTime ETV
vector 192 Highway.node[2].prot collisions ETV
vector 193 Highway.node[3].prot nodeId ETV
vector 194 Highway.node[3].prot busyTime ETV
vector 195 Highway.node[3].prot collisions ETV
vector 196 Highway.node[4].prot nodeId ETV
vector 197 Highway.node[4].prot busyTime ETV
vector 198 Highway.node[4].prot collisions ETV
vector 199 Highway.node[5].prot nodeId ETV
vector 200 Highway.node[5].prot busyTime ETV
vector 201 Highway.node[5].prot collisions ETV
vector 202 Highway.node[6].prot nodeId ETV
vector 203 Highway.node[6].prot busyTime ETV
vector 204 Highway.node[6].prot collisions ETV
vector 205 Highway.node[7].prot nodeId ETV
vector 206 Highway.node[7].prot busyTime ETV
vector 207 Highway.node[7].prot collisions ETV
vector 208 Highway.node[8].prot nodeId ETV
vector 209 Highway.node[8].prot busyTime ETV
vector 210 Highway.node[8].prot collisions ETV
vector 211 Highway.node[9].prot nodeId ETV
vector 212 Highway.node[9].prot busyTime ETV
vector 213 Highway.node[9].prot collisions ETV
vector 214 Highway.node[10].prot nodeId ETV
vector 215 Highway.node[10].prot busyTime ETV
vector 216 Highway.node[10].prot collisions ETV
vector 217 Highway.node[11].prot nodeId ETV
vector 218 Highway.node[11].prot busyTime ETV
vector 219 Highway.node[11].prot collisions ETV
vector 220 Highway.node[12].prot nodeId ETV
vector 221 Highway.node[12].prot busyTime ETV
vector 222 Highway.node[12].prot collisions ETV
vector 223 Highway.node[13].prot nodeId ETV
vector 224 Highway.node[13].prot busyTime ETV
vector 225 Highway.node[13].prot collisions ETV
vector 226 Highway.node[14].prot nodeId ETV
vector 227 Highway.node[14].prot busyTime ETV
vector 228 Highway.node[14].prot collisions ETV
vector 229 Highway.node[15].prot nodeId ETV
vector 230 Highway.node[15].prot busyTime ETV
vector 231 Highway.node[15].prot collisions ETV
0	16709 17953 113 1334980 1.11 99.91 989 -1 9263.17 137973.55 1287095750.7335
1	34662 17052 113 1334980 1.11 99.91 989 -0.000190469 0 -0.00215172969 3.5864939039197e-07
2	51714 16889 113 1334980 1.11 99.91 989 0 0 0 0
3	68603 19177 113 1334980 1.11 99.91 989 -3.14892e-05 0.000707784 0.010991577126781 6.0508064149601e-06
4	87780 26835 113 1334980 1.11 99.91 989 -4.89399e-05 0.00109259 0.010614843047836 8.6815283230331e-06
5	114615 22816 113 1334980 1.11 99.91 989 36.11 36.1111 35713.866699999 1289666.6073546
6	137431 22712 113 1334980 1.11 99.91 989 78.2699 3646.05 1841673.4845 4480693192.6705
7	160143 21834 113 1334980 1.11 99.91 989 242.45 242.45 239783.05 58135400.472499
8	181977 22398 114 1334981 1.11 99.91 989 -1 14.9999 11284.17978 159199.73400536
9	204375 24856 114 1334981 1.11 99.91 989 -1.39742e-05 1.03507 129.99932423198 88.992127720602
10	229231 17878 114 1334981 1.11 99.91 989 1 1 989 989
11	247109 26889 114 1334981 1.11 99.91 989 -0.714771 0.0836414 -11.043916595335 9.7348138768635
12	273998 26923 114 1334981 1.11 99.91 989 -1.09949 0.0843288 -10.213930605577 12.735987696676
13	300921 23653 114 1334981 1.11 99.91 989 34.9505 36.1111 35518.6627 1275726.946619
14	324574 23687 114 1334981 1.11 99.91 989 72.2699 3620.58 1825154.0383 4411935282.9162
15	348261 22823 114 1334981 1.11 99.91 989 242.45 245.75 240007.45 58244952.552499
16	371084 23490 115 1334982 1.11 99.91 989 1.99831 52.8942 11622.35765 258266.49779704
17	394574 25618 115 1334982 1.11 99.91 989 -0.00183561 2.28716 164.96995184133 104.85704091491
18	420192 18867 115 1334982 1.11 99.91 989 10 10 9890 98900
19	439059 25885 115 1334982 1.11 99.91 989 -1.24886 0.153764 -21.023591281288 50.841160180899
20	464944 25861 115 1334982 1.11 99.91 989 -1.5 0.15396 -20.069662882675 59.482963620948
21	490805 23693 115 1334982 1.11 99.91 989 31.6683 36.1111 34294.4987 1191468.8133861
22	514498 23710 115 1334982 1.11 99.91 989 18.2699 3444.21 1692667.0245 3860692253.4495
23	538208 22823 115 1334982 1.11 99.91 989 242.45 252.35 240396.85 58438716.6725
24	561031 23659 116 1334983 1.11 99.91 989 1.97457 52.8245 11533.05168 269190.52561029
25	584690 25470 116 1334983 1.11 99.91 989 -0.538563 3.66341 178.81526951043 196.49448241969
26	610160 18867 116 1334983 1.11 99.91 989 11 11 10879 119669
27	629027 25835 116 1334983 1.11 99.91 989 -1.24541 0.147973 -21.02382980805 51.210296223385
28	654862 25815 116 1334983 1.11 99.91 989 -1.5 0.148061 -20.064741044497 59.98443807009
29	680677 23692 116 1334983 1.11 99.91 989 31.5428 36.1111 34165.3244 1182704.9206428
30	704369 23684 116 1334983 1.11 99.91 989 12.2699 3425.3 1679587.4758 3806355065.0462
31	728053 22823 116 1334983 1.11 99.91 989 242.45 249.05 239961.25 58222789.752499
32	750876 18867 117 1334984 1.11 99.91 989 -1 -1 -989 989
33	769743 17878 117 1334984 1.11 99.91 989 0 0 0 0
34	787621 18867 117 1334984 1.11 99.91 989 12 12 11868 142416
35	806488 20166 117 1334984 1.11 99.91 989 -3.14892e-05 0.000707784 0.010991577126781 6.0508064149601e-06
36	826654 27824 117 1334984 1.11 99.91 989 -4.89399e-05 0.00109259 0.010614843047836 8.6815283230331e-06
37	854478 23805 117 1334984 1.11 99.91 989 36.11 36.1111 35713.866699999 1289666.6073546
38	878283 23632 117 1334984 1.11 99.91 989 9363.44 12931.2 11024702.64 123947129336.89
39	901915 22823 117 1334984 1.11 99.91 989 242.45 242.45 239783.05 58135400.472499
40	924738 21606 118 1334985 1.11 99.91 989 -1 14.9837 5573.22845 79262.81469648
41	946344 22362 118 1334985 1.11 99.91 989 -2.49398e-05 1.03507 129.83830092437 88.990569224327
42	968706 18867 118 1334985 1.11 99.91 989 13 13 12857 167141
43	987573 26601 118 1334985 1.11 99.91 989 -0.713142 0.0836408 -11.061094536433 9.7066561675785
44	1014174 27032 118 1334985 1.11 99.91 989 -1.09701 0.0843282 -10.225178013145 12.698555619864
45	1041206 22110 118 1334985 1.11 99.91 989 34.9506 36.1111 35122.1477 1247530.4806738
46	1063316 23727 118 1334985 1.11 99.91 989 9357.44 12866.1 10998784.29 123338699125.81
47	1087043 22823 118 1334985 1.11 99.91 989 242.45 245.75 241185.55 58820100.9725
48	1109866 23679 119 1334986 1.11 99.91 989 2 45.1467 23691.29718 840286.43914736
49	1133545 25352 119 1334986 1.11 99.91 989 0 0.975197 241.63724303294 132.77390391643
50	1158897 18867 119 1334986 1.11 99.91 989 14 14 13846 193844
51	1177764 26110 119 1334986 1.11 99.91 989 -0.612415 0.129599 -0.135947109501 14.640439817588
52	1203874 26110 119 1334986 1.11 99.91 989 -0.931382 0.130467 0.65202037463591 17.771762882576
53	1229984 23685 119 1334986 1.11 99.91 989 34.2905 36.1111 35342.3911 1263214.5123308
54	1253669 23645 119 1334986 1.11 99.91 989 9351.44 12882.1 10988803.95 123125537456.8
55	1277314 22823 119 1334986 1.11 99.91 989 242.45 242.45 239783.05 58135400.472499
56	1300137 21602 120 1334987 1.11 99.91 989 -1 14.991 5023.49193 67484.051959091
57	1321739 22226 120 1334987 1.11 99.91 989 -1.56538e-07 0.692054 130.115409565 61.728669691624
58	1343965 18867 120 1334987 1.11 99.91 989 15 15 14835 222525
59	1362832 26686 120 1334987 1.11 99.91 989 -1.63055 0.606814 -1.0467269098396 31.934550806772
60	1389518 26655 120 1334987 1.11 99.91 989 -2.51182 0.944034 -0.28434366212024 61.131568028119
61	1416173 22169 120 1334987 1.11 99.91 989 33.6769 36.1111 35263.3421 1257786.8522283
62	1438342 23555 120 1334987 1.11 99.91 989 9345.44 12868.2 10975151.96 122819059684.09
63	1461897 22823 120 1334987 1.11 99.91 989 242.45 249.05 242548.44999999 59494594.572502
64	1484720 23687 121 1334988 1.11 99.91 989 2 40.4649 13528.09681 244827.27082475
65	1508407 26080 121 1334988 1.11 99.91 989 -5.58466e-08 1.16061 195.203476608 141.53824989528
66	1534487 17878 121 1334988 1.11 99.91 989 2 2 1978 3956
67	1552365 26668 121 1334988 1.11 99.91 989 -0.71475 0.129601 -11.043927022101 15.843379395566
68	1579033 26668 121 1334988 1.11 99.91 989 -1.09946 0.13047 -10.214109464959 19.578196138028
69	1605701 23639 121 1334988 1.11 99.91 989 34.2904 36.1111 35388.6638 1266565.1965498
70	1629340 23708 121 1334988 1.11 99.91 989 66.2699 3601.58 1809153.2373 4345720138.0814
71	1653048 22823 121 1334988 1.11 99.91 989 242.45 242.45 239783.05 58135400.472499
72	1675871 23666 122 1334989 1.11 99.91 989 2 26.7859 12066.19778 174275.29487727
73	1699537 25948 122 1334989 1.11 99.91 989 -6.30873e-07 2.38869 248.71564088298 300.46145440661
74	1725485 17878 122 1334989 1.11 99.91 989 3 3 2967 8901
75	1743363 26425 122 1334989 1.11 99.91 989 -1.8052 0.272163 -28.106788574844 65.418956538159
76	1769788 26458 122 1334989 1.11 99.91 989 -2.51763 0.299428 -25.839531557816 82.167078507218
77	1796246 23716 122 1334989 1.11 99.91 989 32.5672 36.1111 35139.9489 1249420.3879673
78	1819962 23703 122 1334989 1.11 99.91 989 60.2699 3570.79 1793131.0165 4278280179.0171
79	1843665 22823 122 1334989 1.11 99.91 989 242.45 242.45 239783.05 58135400.472499
80	1866488 23321 123 1334990 1.11 99.91 989 -1 14.9982 10306.37539 139427.74065491
81	1889809 25370 123 1334990 1.11 99.91 989 -0.000470274 0.607441 129.98190451469 54.216381491492
82	1915179 17878 123 1334990 1.11 99.91 989 4 4 3956 15824
83	1933057 26359 123 1334990 1.11 99.91 989 -1.43416 0.167307 -31.016650895805 55.353677451328
84	1959416 26319 123 1334990 1.11 99.91 989 -1.5 0.168016 -30.027684394452 64.512571101902
85	1985735 23715 123 1334990 1.11 99.91 989 32.9008 36.1111 35026.5126 1241538.2143849
86	2009450 23688 123 1334990 1.11 99.91 989 54.2699 3553.47 1777862.6077 4215081713.61
87	2033138 22823 123 1334990 1.11 99.91 989 242.45 249.05 240231.85 58355985.6725
88	2055961 23616 124 1334991 1.11 99.91 989 2 71.9931 14611.61272 439704.03319249
89	2079577 25763 124 1334991 1.11 99.91 989 -2.08912 0.544291 17.239170490407 257.90318751527
90	2105340 17878 124 1334991 1.11 99.91 989 5 5 4945 24725
91	2123218 26262 124 1334991 1.11 99.91 989 -0.835092 0.575739 5.644864880956 27.940888808631
92	2149480 26296 124 1334991 1.11 99.91 989 -1.00014 0.895017 5.4992133969282 32.812130772909
93	2175776 23684 124 1334991 1.11 99.91 989 32.7949 37.0399 35111.4506 1247666.3923208
94	2199460 23692 124 1334991 1.11 99.91 989 48.2699 3555.78 1763433.9142 4156739438.9462
95	2223152 22823 124 1334991 1.11 99.91 989 242.45 245.75 240007.45 58244952.552499
96	2245975 23614 125 1334992 1.11 99.91 989 2 52.9866 13170.86782 301244.71036839
97	2269589 25718 125 1334992 1.11 99.91 989 -1.22031 0.497206 83.482741386953 84.634409467378
98	2295307 17878 125 1334992 1.11 99.91 989 6 6 5934 35604
99	2313185 26142 125 1334992 1.11 99.91 989 -1.25453 0.189148 -24.354783883466 48.303735873371
100	2339327 27108 125 1334992 1.11 99.91 989 -1.5 0.205228 -22.147801320975 56.449217617366
101	2366435 24679 125 1334992 1.11 99.91 989 32.4725 36.1111 34796.5238 1225681.9733012
102	2391114 24709 125 1334992 1.11 99.91 989 42.2699 3518.43 1748210.2493 4091890941.6473
103	2415823 23812 125 1334992 1.11 99.91 989 242.45 242.45 239783.05 58135400.472499
104	2439635 24326 126 1334993 1.11 99.91 989 -1 14.9857 9336.94591 120526.44654949
105	2463961 26110 126 1334993 1.11 99.91 989 -1.52152e-05 0.460429 129.85813807969 41.466538033677
106	2490071 18867 126 1334993 1.11 99.91 989 7 7 6923 48461
107	2508938 27076 126 1334993 1.11 99.91 989 -1.25355 0.169614 -21.023197778075 48.233363522704
108	2536014 27061 126 1334993 1.11 99.91 989 -1.5 0.169956 -20.068932353307 56.8551769917
109	2563075 24681 126 1334993 1.11 99.91 989 32.2105 36.1111 34683.43 1217939.5991628
110	2587756 24667 126 1334993 1.11 99.91 989 36.2699 3501.11 1733861.3805 4032202137.6219
111	2612423 23812 126 1334993 1.11 99.91 989 242.45 252.35 240456.25 58468499.8325
112	2636235 24591 127 1334994 1.11 99.91 989 1.99997 70.8133 12532.61525 306774.39028072
113	2660826 26553 127 1334994 1.11 99.91 989 -0.0212578 3.73176 246.29321327696 403.33944017259
114	2687379 18867 127 1334994 1.11 99.91 989 8 8 7912 63296
115	2706246 26936 127 1334994 1.11 99.91 989 -1.25263 0.446671 -20.753270811794 57.471236285693
116	2733182 26928 127 1334994 1.11 99.91 989 -1.5 0.694256 -19.898925752004 68.135761317359
117	2760110 24683 127 1334994 1.11 99.91 989 31.994 36.1111 34541.9957 1208305.255048
118	2784793 24674 127 1334994 1.11 99.91 989 30.2699 3480.96 1719766.9548 3973383228.0239
119	2809467 23812 127 1334994 1.11 99.91 989 242.45 245.75 239901.85 58193398.632499
120	2833279 24618 128 1334995 1.11 99.91 989 1.99997 90.1804 14084.07162 528409.44126428
121	2857897 26493 128 1334995 1.11 99.91 989 -4.72257 0.406406 -80.38070981116 823.05863366302
122	2884390 18867 128 1334995 1.11 99.91 989 9 9 8901 80109
123	2903257 26867 128 1334995 1.11 99.91 989 -0.871016 1.18077 -3.8705071569273 60.121476633011
124	2930124 26836 128 1334995 1.11 99.91 989 -1.0091 1.5 -3.9301852014753 74.49928102957
125	2956960 24708 128 1334995 1.11 99.91 989 31.8166 37.9156 34592.7063 1212278.8565994
126	2981668 24677 128 1334995 1.11 99.91 989 24.2699 3479.95 1706632.4976 3920261731.052
127	3006345 23812 128 1334995 1.11 99.91 989 242.45 249.05 240198.85 58339657.2725
128	3030157 41369 1505 1335046 1.224917060737 99.92491456751 988 0.099988162508 0.100005482058 98.800000547496 9.8800001467023
129	3071526 29622 1505 1335046 1.224917060737 99.92491456751 988 10 10 9880 98800
130	3101148 41386 1609 1335138 1.227212100765 99.927209590223 988 0.099990040723 0.100006921322 98.800000530181 9.8800001431818
131	3142534 28639 1609 1335138 1.227212100765 99.927209590223 988 8 8 7904 63232
132	3171173 41356 1708 1335231 1.231132120779 99.931129652592 988 0.099988162518 0.100005480684 98.800000572536 9.8800001516085
133	3212529 28608 1708 1335231 1.231132120779 99.931129652592 988 7 7 6916 48412
134	3241137 41380 1804 1335333 1.249417240862 99.949415097771 988 0.099990040723 0.100006922271 98.800000897632 9.8800002166682
135	3282517 28629 1804 1335333 1.249417240862 99.949415097771 988 1 1 988 988
136	3311146 41380 1804 1335333 1.249417240862 99.949415097771 988 0.099990040723 0.100006922271 98.800000897632 9.8800002166682
137	3352526 28629 1804 1335333 1.249417240862 99.949415097771 988 1 1 988 988
138	3381155 41367 1810 1335339 1.249417260876 99.949415160438 988 0.099990040723 0.100006921322 98.800000940285 9.8800002251988
139	3422522 28618 1810 1335339 1.249417260876 99.949415160438 988 2 2 1976 3952
140	3451140 41360 1816 1335345 1.24941728089 99.949415263357 988 0.099990040723 0.100006921322 98.80000102319 9.8800002417798
141	3492500 28610 1816 1335345 1.24941728089 99.949415263357 988 3 3 2964 8892
142	3521110 41349 1822 1335357 1.249417300903 99.949415321982 988 0.099990040723 0.100006922276 98.800001061802 9.8800002495022
143	3562459 28612 1822 1335357 1.249417300903 99.949415321982 988 4 4 3952 15808
144	3591071 41372 1828 1335351 1.249417320917 99.949415313205 988 0.099990040723 0.100006921514 98.800001033011 9.880000243744
145	3632443 28626 1828 1335351 1.249417320917 99.949415313205 988 5 5 4940 24700
146	3661069 41364 1834 1335363 1.249417340931 99.949415437966 988 0.099990040723 0.100006921323 98.800001137758 9.8800002646934
147	3702433 28626 1834 1335363 1.249417340931 99.949415437966 988 6 6 5928 35568
148	3731059 41350 1840 1335369 1.249417360945 99.94941549684 988 0.099990040723 0.10000692187 98.800001176618 9.8800002724654
149	3772409 28614 1840 1335369 1.249417360945 99.94941549684 988 7 7 6916 48412
150	3801023 41364 1846 1335375 1.249417380959 99.949415563017 988 0.099990040723 0.100006921325 98.800001222781 9.880000281698
151	3842387 28622 1846 1335375 1.249417380959 99.949415563017 988 8 8 7904 63232
152	3871009 41358 1852 1335381 1.249417400973 99.9494155665 988 0.099990040723 0.100006921432 98.80000120625 9.8800002783918
153	3912367 28619 1852 1335381 1.249417400973 99.9494155665 988 9 9 8892 80028
154	3940986 41397 1858 1335387 1.249417420986 99.94941568585 988 0.099990040723 0.100006921711 98.800001305587 9.8800002982592
155	3982383 29637 1858 1335387 1.249417420986 99.94941568585 988 10 10 9880 98800
156	4012020 41361 1864 1335393 1.249417441 99.949415748674 988 0.099990040723 0.100006921332 98.800001348397 9.8800003068212
157	4053381 29611 1864 1335393 1.249417441 99.949415748674 988 11 11 10868 119548
158	4082992 41360 1905 1335428 1.249892400973 99.949838574468 988 0.099900449583 0.10009627509 98.799962214218 9.8799942259103
159	4124352 28617 1905 1335428 1.249892400973 99.949838574468 988 9 9 8892 80028
160	4152969 41363 2039 1335574 1.263263461015 99.963274938565 988 0.099990040723 0.100006922596 98.800001518273 9.8800003408067
161	4194332 28626 2039 1335574 1.263263461015 99.963274938565 988 6 6 5928 35568
162	4222958 41345 2138 1335661 1.271304481029 99.971315840737 988 0.099990040723 0.100006923544 98.800001400431 9.8800003172419
163	4264303 28608 2138 1335661 1.271304481029 99.971315840737 988 5 5 4940 24700
164	4292911 41379 2236 1335765 1.274054521057 99.974053092341 988 0.099990040723 0.100006924493 98.800001612007 9.8800003595449
165	4334290 28639 2236 1335765 1.274054521057 99.974053092341 988 3 3 2964 8892
166	4362929 41375 2319 1335842 1.280897160112 99.98090357175 988 0.099992390654 0.100011533801 98.800004531722 9.8800009251744
167	4404304 29602 2319 1335842 1.280897160112 99.98090357175 988 15 15 14820 222300
168	4433906 41358 2364 1335893 1.296434681168 99.996433578918 988 0.099990040723 0.100006933704 98.800001938473 9.8800004248329
169	4475264 29606 2364 1335893 1.296434681168 99.996433578918 988 11 11 10868 119548
170	4504870 41290 2481 1334672 1.300079180126 99.900074094518 987 0.099993375012 0.100011532111 98.700006034476 9.8700012254368
171	4546160 29569 2481 1334672 1.300079180126 99.900074094518 987 14 14 13818 193452
172	4575729 41329 2503 1334688 1.300120861293 99.900127678061 987 0.099988024884 0.100005485157 98.700009857491 9.8700020085382
173	4617058 28607 2503 1334688 1.300120861293 99.900127678061 987 2 2 1974 3948
174	4645665 41324 2601 1334792 1.300985901321 99.900979841965 987 0.099950537636 0.100048684995 98.699996981367 9.8699994382219
175	4686989 28592 2601 1334792 1.300985901321 99.900979841965 987 4 4 3948 15792
176	4715581 41338 2775 1334978 1.30479220014 99.90480047509 987 0.099992390637 0.100011534079 98.700006395034 9.870001297834
177	4756919 29577 2775 1334978 1.30479220014 99.90480047509 987 13 13 12831 166803
178	4786496 41338 2775 1334978 1.30479220014 99.90480047509 987 0.099992390637 0.100011534079 98.700006395034 9.870001297834
179	4827834 29577 2775 1334978 1.30479220014 99.90480047509 987 13 13 12831 166803
180	4857411 41319 2781 1334966 1.304792220154 99.904800421542 987 0.09999239064 0.100011533714 98.700006321472 9.8700012831216
181	4898730 29591 2781 1334966 1.304792220154 99.904800421542 987 14 14 13818 193452
182	4928321 41305 2787 1334972 1.304792240168 99.904800469058 987 0.099992390644 0.100011533745 98.700006348974 9.870001288622
183	4969626 29564 2787 1334972 1.304792240168 99.904800469058 987 15 15 14805 222075
184	4999190 1595 11832 1335995 2 100 99 0 0 0 0
185	5000785 2862 11832 1335995 2 100 99 0.032951853646 0.039194670021 3.706297172089 0.13877739069995
186	5003647 1595 11832 1335995 2 100 99 0 0 0 0
187	5005242 1595 11833 1335996 2 100 99 1 1 99 99
188	5006837 2866 11833 1335996 2 100 99 0.03295187366 0.038823309902 3.705638022528 0.13872679074097
189	5009703 1595 11833 1335996 2 100 99 0 0 0 0
190	5011298 1694 11834 1335997 2 100 99 10 10 990 9900
191	5012992 2865 11834 1335997 2 100 99 0.032951693535 0.038823309176 3.705638573622 0.13872683363622
192	5015857 1595 11834 1335997 2 100 99 0 0 0 0
193	5017452 1694 11835 1335998 2 100 99 11 11 1089 11979
194	5019146 2869 11835 1335998 2 100 99 0.032950673521 0.038857702036 3.705637637306 0.13872686017752
195	5022015 1595 11835 1335998 2 100 99 0 0 0 0
196	5023610 1694 11836 1335999 2 100 99 12 12 1188 14256
197	5025304 2869 11836 1335999 2 100 99 0.010848979286 0.013078942778 1.235791966029 0.015429157640488
198	5028173 1595 11836 1335999 2 100 99 0 0 0 0
199	5029768 1694 11837 1336000 2 100 99 13 13 1287 16731
200	5031462 2864 11837 1336000 2 100 99 0.0108499993 0.012979185008 1.23566155101 0.015425781309423
201	5034326 1595 11837 1336000 2 100 99 0 0 0 0
202	5035921 1694 11838 1336001 2 100 99 14 14 1386 19404
203	5037615 2869 11838 1336001 2 100 99 0.010849979286 0.012979184062 1.235661622802 0.015425783192356
204	5040484 1595 11838 1336001 2 100 99 0 0 0 0
205	5042079 1694 11839 1336002 2 100 99 15 15 1485 22275
206	5043773 2868 11839 1336002 2 100 99 0.010849959272 0.013012563411 1.235661790949 0.015425813001804
207	5046641 1595 11839 1336002 2 100 99 0 0 0 0
208	5048236 1595 11840 1336003 2 100 99 2 2 198 396
209	5049831 2866 11840 1336003 2 100 99 0.032951853646 0.038823308953 3.705638084711 0.1387267963612
210	5052697 1595 11840 1336003 2 100 99 0 0 0 0
211	5054292 1595 11841 1336004 2 100 99 3 3 297 891
212	5055887 2867 11841 1336004 2 100 99 0.032950833632 0.038823308701 3.705637108679 0.13872673154776
213	5058754 1595 11841 1336004 2 100 99 0 0 0 0
214	5060349 1595 11842 1336005 2 100 99 4 4 396 1584
215	5061944 2867 11842 1336005 2 100 99 0.032951813618 0.03882330934 3.705638177519 0.13872680365473
216	5064811 1595 11842 1336005 2 100 99 0 0 0 0
217	5066406 1595 11843 1336006 2 100 99 5 5 495 2475
218	5068001 2871 11843 1336006 2 100 99 0.032951793604 0.038823310795 3.705638313247 0.13872681401427
219	5070872 1595 11843 1336006 2 100 99 0 0 0 0
220	5072467 1595 11844 1336007 2 100 99 6 6 594 3564
221	5074062 2872 11844 1336007 2 100 99 0.032951773591 0.038823309415 3.705638314273 0.13872681428592
222	5076934 1595 11844 1336007 2 100 99 0 0 0 0
223	5078529 1595 11845 1336008 2 100 99 7 7 693 4851
224	5080124 2867 11845 1336008 2 100 99 0.032951753577 0.038823309011 3.705638382833 0.13872681873937
225	5082991 1595 11845 1336008 2 100 99 0 0 0 0
226	5084586 1595 11846 1336009 2 100 99 8 8 792 6336
227	5086181 2870 11846 1336009 2 100 99 0.032951733563 0.038823309501 3.705638442929 0.13872682344301
228	5089051 1595 11846 1336009 2 100 99 0 0 0 0
229	5090646 1595 11847 1336010 2 100 99 9 9 891 8019
230	5092241 2867 11847 1336010 2 100 99 0.032951713549 0.038823310996 3.705638566606 0.13872683291288
231	5095108 1595 11847 1336010 2 100 99 0 0 0 0

