file 2380371 1720583541                                         
version 3
run BreakRanksNoGui-29-20240710-05:52:12-234382
attr configname BreakRanksNoGui
attr datetime 20240710-05:52:12
attr datetimef 20240710-055212
attr experiment BreakRanksNoGui
attr inifile omnetpp.ini
attr iterationvars "$nCars=8, $platoonSize=8, $nLanes=1, $ploegH=0.5, $controller=1, $headway=0.1, $leaderHeadway=1.2, $leaderSpeed=130, $breakRanksSafetyDistance=2, $minSpeed=120, $maxSpeed=140, $beaconInterval=0.1, $priority=4, $packetSize=200, $sController=\"CACC\", $0=2, $1=0"
attr iterationvarsd nCars=8/platoonSize=8/nLanes=1/ploegH=0.5/controller=1/headway=0.1/leaderHeadway=1.2/leaderSpeed=130/breakRanksSafetyDistance=2/minSpeed=120/maxSpeed=140/beaconInterval=0.1/priority=4/packetSize=200/sController=CACC/2/0
attr iterationvarsf nCars=8,platoonSize=8,nLanes=1,ploegH=0.5,controller=1,headway=0.1,leaderHeadway=1.2,leaderSpeed=130,breakRanksSafetyDistance=2,minSpeed=120,maxSpeed=140,beaconInterval=0.1,priority=4,packetSize=200,sController=CACC,2,0-
attr measurement "$nCars=8, $platoonSize=8, $nLanes=1, $ploegH=0.5, $controller=1, $headway=0.1, $leaderHeadway=1.2, $leaderSpeed=130, $breakRanksSafetyDistance=2, $minSpeed=120, $maxSpeed=140, $beaconInterval=0.1, $priority=4, $packetSize=200, $sController=\"CACC\", $0=2, $1=0"
attr network Highway
attr processid 234382
attr repetition 9
attr replication #9
attr resultdir results
attr runnumber 29
attr seedset 9
itervar beaconInterval 0.1
itervar breakRanksSafetyDistance 2
itervar controller 1
itervar headway 0.1
itervar leaderHeadway 1.2
itervar leaderSpeed 130
itervar maxSpeed 140
itervar minSpeed 120
itervar nCars 8
itervar nLanes 1
itervar packetSize 200
itervar platoonSize 8
itervar ploegH 0.5
itervar priority 4
itervar sController "\"CACC\""
config image-path ../../../veins/images
config repeat 10
config extends BreakRanks
config *.manager.command "\"sumo\""
config *.manager.ignoreGuiCommands true
config output-vector-file results/BreakRanks_1_0.1_130_2/result_9.vec
config output-scalar-file results/BreakRanks_1_0.1_130_2/result_9.sca
config extends Platooning
config *.node[*].scenario_type "\"BreakRanksScenario\""
config *.manager.command "\"sumo-gui\""
config *.node[*].scenario_type "\"SimpleScenario\""
config cmdenv-express-mode true
config cmdenv-autoflush true
config cmdenv-status-frequency 15s
config num-rngs 6
config network Highway
config debug-on-errors true
config print-undisposed true
config *.playgroundSizeX 65000m
config *.playgroundSizeY 25000m
config *.playgroundSizeZ 50m
config sim-time-limit "100 s"
config *.annotations.draw false
config *.obstacles.debug false
config *.world.useTorus false
config *.world.use2D false
config *.manager.updateInterval 0.01s
config *.manager.host "\"localhost\""
config *.manager.moduleType "\"org.car2x.plexe.PlatoonCar\""
config *.manager.moduleName "\"node\""
config *.manager.moduleDisplayString "\"\""
config *.manager.autoShutdown true
config *.manager.margin 25
config *.connectionManager.sendDirect true
config *.connectionManager.maxInterfDist 2600m
config *.connectionManager.drawMaxIntfDist false
config *.**.nic.mac1609_4.useServiceChannel false
config *.**.nic.mac1609_4.txPower 100mW
config *.**.nic.mac1609_4.bitrate 6Mbps
config *.**.nic.mac1609_4.useAcks true
config *.**.nic.mac1609_4.ackErrorRate 0.0
config *.**.nic.mac1609_4.frameErrorRate 0.0
config *.**.nic.phy80211p.minPowerLevel -94dBm
config *.**.nic.phy80211p.maxTXPower 100mW
config *.**.nic.phy80211p.useNoiseFloor true
config *.**.nic.phy80211p.noiseFloor -95dBm
config *.**.nic.phy80211p.decider "xmldoc(\"config.xml\")"
config *.**.nic.phy80211p.analogueModels "xmldoc(\"config.xml\")"
config *.**.nic.phy80211p.usePropagationDelay true
config *.node[*].mobility.x 0
config *.node[*].mobility.y 0
config *.node[*].mobility.z 1.895
config seed-set 9
config **.seed 9
config *.node[*].prot.rng-0 2
config *.node[*].appl.rng-0 3
config *.node[*].scenario.rng-0 4
config **.traffic.rng-0 5
config *.manager.configFile "\"./sumocfg/freeway.sumo.cfg\""
config *.manager.launchConfig "xmldoc(\"./sumocfg/freeway.launchd.xml\")"
config **.numberOfCars 8
config **.numberOfCarsPerPlatoon 8
config **.numberOfLanes 1
config *.node[*].helper_type "\"PositionHelper\""
config *.node[*].scenario.caccC1 0.5
config *.node[*].scenario.caccXi 1
config *.node[*].scenario.caccOmegaN "0.2 Hz"
config *.node[*].scenario.caccSpacing "2 m"
config *.node[*].scenario.engineTau "0.5 s"
config *.node[*].scenario.ploegH 0.5s
config *.node[*].scenario.ploegKp 0.2
config *.node[*].scenario.ploegKd 0.7
config *.node[*].scenario.useRealisticEngine false
config *.node[*].scenario.useControllerAcceleration true
config *.node[*].scenario.nLanes 1
config **.numericController 1
config **.headway 0.1s
config *.node[*].scenario.accHeadway 0.1s
config *.node[*].scenario.leaderHeadway 1.2s
config *.node[*].scenario.leaderSpeed 130kmph
config *.node[*].appl_type "\"SimplePlatooningApp\""
config *.node[*].appl.*.scalar-recording true
config *.node[*].appl.*.vector-recording true
config *.node[0].appl.breakRanksSafetyDistance 2m
config *.node[*].appl.minSpeed 120kmph
config *.node[*].appl.maxSpeed 140kmph
config *.node[*].protocol_type "\"SimplePlatooningBeaconing\""
config *.node[*].prot.*.scalar-recording true
config *.node[*].prot.*.vector-recording true
config *.node[*].prot.beaconingInterval 0.1s
config *.node[*].prot.priority 4
config *.node[*].prot.packetSize 200
config **.traffic_type "\"PlatoonsTrafficManager\""
config **.traffic.platoonInsertTime "1 s"
config **.traffic.platoonInsertSpeed 130kmph
config **.traffic.nCars 8
config **.traffic.platoonSize 8
config **.traffic.nLanes 1
config **.traffic.platooningVType "\"vtypeauto\""
config **.traffic.controller "\"CACC\""
config **.traffic.platoonInsertDistance 2m
config **.traffic.platoonInsertHeadway 0s
config **.traffic.platoonLeaderHeadway 1.2s
config **.scalar-recording false
config **.vector-recording false

vector 0 Highway.node[0].appl distance ETV
vector 1 Highway.node[0].appl relativeSpeed ETV
vector 2 Highway.node[0].appl nodeId ETV
vector 3 Highway.node[0].appl acceleration ETV
vector 4 Highway.node[0].appl controllerAcceleration ETV
vector 5 Highway.node[0].appl speed ETV
vector 6 Highway.node[0].appl posx ETV
vector 7 Highway.node[0].appl posy ETV
vector 8 Highway.node[1].appl distance ETV
vector 9 Highway.node[1].appl relativeSpeed ETV
vector 10 Highway.node[1].appl nodeId ETV
vector 11 Highway.node[1].appl acceleration ETV
vector 12 Highway.node[1].appl controllerAcceleration ETV
vector 13 Highway.node[1].appl speed ETV
vector 14 Highway.node[1].appl posx ETV
vector 15 Highway.node[1].appl posy ETV
vector 16 Highway.node[2].appl distance ETV
vector 17 Highway.node[2].appl relativeSpeed ETV
vector 18 Highway.node[2].appl nodeId ETV
vector 19 Highway.node[2].appl acceleration ETV
vector 20 Highway.node[2].appl controllerAcceleration ETV
vector 21 Highway.node[2].appl speed ETV
vector 22 Highway.node[2].appl posx ETV
vector 23 Highway.node[2].appl posy ETV
vector 24 Highway.node[3].appl distance ETV
vector 25 Highway.node[3].appl relativeSpeed ETV
vector 26 Highway.node[3].appl nodeId ETV
vector 27 Highway.node[3].appl acceleration ETV
vector 28 Highway.node[3].appl controllerAcceleration ETV
vector 29 Highway.node[3].appl speed ETV
vector 30 Highway.node[3].appl posx ETV
vector 31 Highway.node[3].appl posy ETV
vector 32 Highway.node[4].appl distance ETV
vector 33 Highway.node[4].appl relativeSpeed ETV
vector 34 Highway.node[4].appl nodeId ETV
vector 35 Highway.node[4].appl acceleration ETV
vector 36 Highway.node[4].appl controllerAcceleration ETV
vector 37 Highway.node[4].appl speed ETV
vector 38 Highway.node[4].appl posx ETV
vector 39 Highway.node[4].appl posy ETV
vector 40 Highway.node[5].appl distance ETV
vector 41 Highway.node[5].appl relativeSpeed ETV
vector 42 Highway.node[5].appl nodeId ETV
vector 43 Highway.node[5].appl acceleration ETV
vector 44 Highway.node[5].appl controllerAcceleration ETV
vector 45 Highway.node[5].appl speed ETV
vector 46 Highway.node[5].appl posx ETV
vector 47 Highway.node[5].appl posy ETV
vector 48 Highway.node[6].appl distance ETV
vector 49 Highway.node[6].appl relativeSpeed ETV
vector 50 Highway.node[6].appl nodeId ETV
vector 51 Highway.node[6].appl acceleration ETV
vector 52 Highway.node[6].appl controllerAcceleration ETV
vector 53 Highway.node[6].appl speed ETV
vector 54 Highway.node[6].appl posx ETV
vector 55 Highway.node[6].appl posy ETV
vector 56 Highway.node[7].appl distance ETV
vector 57 Highway.node[7].appl relativeSpeed ETV
vector 58 Highway.node[7].appl nodeId ETV
vector 59 Highway.node[7].appl acceleration ETV
vector 60 Highway.node[7].appl controllerAcceleration ETV
vector 61 Highway.node[7].appl speed ETV
vector 62 Highway.node[7].appl posx ETV
vector 63 Highway.node[7].appl posy ETV
vector 64 Highway.node[2].prot frontDelay ETV
vector 65 Highway.node[2].prot frontDelayId ETV
vector 66 Highway.node[7].prot frontDelay ETV
vector 67 Highway.node[7].prot frontDelayId ETV
vector 68 Highway.node[3].prot frontDelay ETV
vector 69 Highway.node[3].prot frontDelayId ETV
vector 70 Highway.node[6].prot frontDelay ETV
vector 71 Highway.node[6].prot frontDelayId ETV
vector 72 Highway.node[5].prot frontDelay ETV
vector 73 Highway.node[5].prot frontDelayId ETV
vector 74 Highway.node[4].prot frontDelay ETV
vector 75 Highway.node[4].prot frontDelayId ETV
vector 76 Highway.node[1].prot leaderDelay ETV
vector 77 Highway.node[1].prot leaderDelayId ETV
vector 78 Highway.node[1].prot frontDelay ETV
vector 79 Highway.node[1].prot frontDelayId ETV
vector 80 Highway.node[2].prot leaderDelay ETV
vector 81 Highway.node[2].prot leaderDelayId ETV
vector 82 Highway.node[3].prot leaderDelay ETV
vector 83 Highway.node[3].prot leaderDelayId ETV
vector 84 Highway.node[4].prot leaderDelay ETV
vector 85 Highway.node[4].prot leaderDelayId ETV
vector 86 Highway.node[5].prot leaderDelay ETV
vector 87 Highway.node[5].prot leaderDelayId ETV
vector 88 Highway.node[6].prot leaderDelay ETV
vector 89 Highway.node[6].prot leaderDelayId ETV
vector 90 Highway.node[7].prot leaderDelay ETV
vector 91 Highway.node[7].prot leaderDelayId ETV
vector 92 Highway.node[0].prot nodeId ETV
vector 93 Highway.node[0].prot busyTime ETV
vector 94 Highway.node[0].prot collisions ETV
vector 95 Highway.node[1].prot nodeId ETV
vector 96 Highway.node[1].prot busyTime ETV
vector 97 Highway.node[1].prot collisions ETV
vector 98 Highway.node[2].prot nodeId ETV
vector 99 Highway.node[2].prot busyTime ETV
vector 100 Highway.node[2].prot collisions ETV
vector 101 Highway.node[3].prot nodeId ETV
vector 102 Highway.node[3].prot busyTime ETV
vector 103 Highway.node[3].prot collisions ETV
vector 104 Highway.node[4].prot nodeId ETV
vector 105 Highway.node[4].prot busyTime ETV
vector 106 Highway.node[4].prot collisions ETV
vector 107 Highway.node[5].prot nodeId ETV
vector 108 Highway.node[5].prot busyTime ETV
vector 109 Highway.node[5].prot collisions ETV
vector 110 Highway.node[6].prot nodeId ETV
vector 111 Highway.node[6].prot busyTime ETV
vector 112 Highway.node[6].prot collisions ETV
vector 113 Highway.node[7].prot nodeId ETV
vector 114 Highway.node[7].prot busyTime ETV
vector 115 Highway.node[7].prot collisions ETV
0	11185 19771 113 542180 1.11 99.91 989 -1 116.145 33105.7517 2731643.0864848
1	30956 18848 113 542180 1.11 99.91 989 0 1.8889 878.3385 1659.09359265
2	49804 16523 113 542180 1.11 99.91 989 0 0 0 0
3	66327 18811 113 542180 1.11 99.91 989 -3.14892e-05 0.000707784 0.010991577126781 6.0508064149601e-06
4	85138 26469 113 542180 1.11 99.91 989 -4.89399e-05 0.00109259 0.010614843047836 8.6815283230331e-06
5	111607 22450 113 542180 1.11 99.91 989 36.11 36.1111 35713.866699999 1289666.6073546
6	134057 22398 113 542180 1.11 99.91 989 67.7299 3635.51 1831249.4266 4441980589.1543
7	156455 21468 113 542180 1.11 99.91 989 242.45 242.45 239783.05 58135400.472499
8	177923 18224 114 542181 1.11 99.91 989 -1 39.0571 1245.07732 65623.730289779
9	196147 17448 114 542181 1.11 99.91 989 -2.49398e-05 2 114.00267838436 228.00000031634
10	213595 17512 114 542181 1.11 99.91 989 1 1 989 989
11	231107 21172 114 542181 1.11 99.91 989 -0.0830777 0.00370926 -1.0678233162985 0.071966311505594
12	252279 28068 114 542181 1.11 99.91 989 -0.104497 0.00576379 -0.7002577012348 0.054862968488589
13	280347 19295 114 542181 1.11 99.91 989 35.9942 36.1111 35614.6859 1282514.5463474
14	299642 23428 114 542181 1.11 99.91 989 61.7299 3619.59 1820886.2494 4397423111.4855
15	323070 22457 114 542181 1.11 99.91 989 242.45 245.75 242749.75 59583743.4125
16	345527 23284 115 542182 1.11 99.91 989 2 135.545 57232.9383 4589713.9229567
17	368811 22355 115 542182 1.11 99.91 989 0 3.1981 1582.356088405 3091.5494604626
18	391166 17512 115 542182 1.11 99.91 989 2 2 1978 3956
19	408678 24623 115 542182 1.11 99.91 989 -2.02228 0.353912 -21.044835462386 52.18761508523
20	433301 27203 115 542182 1.11 99.91 989 -3.08596 0.399174 -19.725940228718 73.502745718561
21	460504 20056 115 542182 1.11 99.91 989 32.913 36.1111 33794.8443 1155215.8842216
22	480560 23404 115 542182 1.11 99.91 989 55.7299 3431.71 1732449.5577 3968392499.3078
23	503964 22457 115 542182 1.11 99.91 989 242.45 242.45 239783.05 58135400.472499
24	526421 21468 116 542183 1.11 99.91 989 -1 72.3158 21417.78262 1120046.0094033
25	547889 20870 116 542183 1.11 99.91 989 -1 3.57768 276.03426786123 1091.3647651044
26	568759 17512 116 542183 1.11 99.91 989 3 3 2967 8901
27	586271 23896 116 542183 1.11 99.91 989 -2.88427 1.32446 8.969382742547 185.84670925251
28	610167 26668 116 542183 1.11 99.91 989 -3.60523 1.5 10.406666672062 227.79787403549
29	636835 21086 116 542183 1.11 99.91 989 29.6066 37.0917 35166.7115 1254464.8198187
30	657921 23404 116 542183 1.11 99.91 989 49.7299 3562.75 1747624.3949 4109463904.1372
31	681325 22457 116 542183 1.11 99.91 989 242.45 252.35 243446.05 59934044.352501
32	703782 23250 117 542184 1.11 99.91 989 0.669739 154.72 77897.774579 7741385.7815131
33	727032 20588 117 542184 1.11 99.91 989 -7.55471e-07 9.96251 2123.4705437658 8994.6587282741
34	747620 17512 117 542184 1.11 99.91 989 4 4 3956 15824
35	765132 21945 117 542184 1.11 99.91 989 -3.14921 1.49904 -31.042198143759 319.3978016035
36	787077 27474 117 542184 1.11 99.91 989 -3.60808 1.5 -29.757332209192 362.94810385278
37	814551 19830 117 542184 1.11 99.91 989 26.675 36.1111 32646.5596 1079971.9198202
38	834381 23376 117 542184 1.11 99.91 989 43.7299 3304.93 1658907.2302 3653603998.7848
39	857757 22457 117 542184 1.11 99.91 989 242.45 249.05 241673.95000001 59063895.732499
40	880214 21860 118 542185 1.11 99.91 989 -1 318.97 107521.355189 22461614.616916
41	902074 18861 118 542185 1.11 99.91 989 -1.66036e-06 12.0841 1937.6514927271 7437.0230618788
42	920935 17512 118 542185 1.11 99.91 989 5 5 4945 24725
43	938447 21940 118 542185 1.11 99.91 989 -3.20588 1.49961 -31.025240821786 378.86035300044
44	960387 27417 118 542185 1.11 99.91 989 -3.60808 1.5 -28.658735739934 443.60959849385
45	987804 19836 118 542185 1.11 99.91 989 25.8762 36.1111 32623.4849 1078693.7485452
46	1007640 23425 118 542185 1.11 99.91 989 37.7299 3296.62 1651000.9301 3626275556.5719
47	1031065 22457 118 542185 1.11 99.91 989 242.45 252.35 244706.65 60558682.2125
48	1053522 23265 119 542186 1.11 99.91 989 2 130.563 67941.75762 5939389.391698
49	1076787 20670 119 542186 1.11 99.91 989 -1.39198e-06 2.77238 996.21611859263 1193.7331612403
50	1097457 17512 119 542186 1.11 99.91 989 6 6 5934 35604
51	1114969 21483 119 542186 1.11 99.91 989 -2.94524 0.863937 -11.067584030518 74.59608660791
52	1136452 27265 119 542186 1.11 99.91 989 -3.60808 1.20595 -7.8495328698671 133.52743270472
53	1163717 19499 119 542186 1.11 99.91 989 33.2323 36.1111 34682.1267 1216385.7610634
54	1183216 23430 119 542186 1.11 99.91 989 31.7299 3496.39 1747872.2257 4076870896.3911
55	1206646 22457 119 542186 1.11 99.91 989 242.45 245.75 241720.15 59081092.692499
56	1229103 18406 120 542187 1.11 99.91 989 -1 2 -704 1274
57	1247509 18477 120 542187 1.11 99.91 989 -2.94465e-06 2.26113e-06 -3.3223282e-06 1.4887710749787e-10
58	1265986 17512 120 542187 1.11 99.91 989 7 7 6923 48461
59	1283498 21567 120 542187 1.11 99.91 989 -2.26195 1.4412 18.960783842563 59.549298682439
60	1305065 27770 120 542187 1.11 99.91 989 -3.60808 1.5 22.160228139152 121.30777897537
61	1332835 19564 120 542187 1.11 99.91 989 34.7766 38.1 37336.2578 1409951.2121514
62	1352399 23354 120 542187 1.11 99.91 989 25.7299 3755.65 1859340.572 4654329297.9236
63	1375753 22457 120 542187 1.11 99.91 989 242.45 249.05 242426.35000001 59433961.692499
64	1398210 39952 703 542242 1.22081946032 99.920824316283 988 0.099987440306 0.100005267374 98.800005296269 9.880001084057
65	1438162 27264 703 542242 1.22081946032 99.920824316283 988 2 2 1976 3952
66	1465426 39968 770 542321 1.230758560389 99.930763965633 988 0.09998744031 0.100005268042 98.80000584555 9.8800011938628
67	1505394 27287 770 542321 1.230758560389 99.930763965633 988 7 7 6916 48412
68	1532681 39969 837 542364 1.244324640444 99.944329753858 988 0.099987440309 0.100005268375 98.80000555372 9.8800011355056
69	1572650 27272 837 542364 1.244324640444 99.944329753858 988 3 3 2964 8892
70	1599922 39972 904 542431 1.252209700486 99.952202434 988 0.099987440306 0.100005262964 98.79999317382 9.8799986596157
71	1639894 27280 904 542431 1.252209700486 99.952202434 988 6 6 5928 35568
72	1667174 39953 1038 542553 1.278015800556 99.978010833682 988 0.099987440307 0.100005265633 98.799995473432 9.87999911952
73	1707127 27274 1038 542553 1.278015800556 99.978010833682 988 5 5 4940 24700
74	1734401 39939 1106 542651 1.29367482057 99.993671525958 988 0.099987440306 0.100005273714 98.799997145694 9.8799994539693
75	1774340 27255 1106 542651 1.29367482057 99.993671525958 988 4 4 3952 15808
76	1801595 39920 1167 542142 1.308748880612 99.908752689339 987 0.09998744031 0.100005261297 98.700004249033 9.8700008744754
77	1841515 27258 1167 542142 1.308748880612 99.908752689339 987 1 1 987 987
78	1868773 39920 1167 542142 1.308748880612 99.908752689339 987 0.09998744031 0.100005261297 98.700004249033 9.8700008744754
79	1908693 27258 1167 542142 1.308748880612 99.908752689339 987 1 1 987 987
80	1935951 39940 1173 542166 1.308748900626 99.908753314924 987 0.09998744031 0.100005261964 98.700004854604 9.8700009955896
81	1975891 27264 1173 542166 1.308748900626 99.908753314924 987 2 2 1974 3948
82	2003155 39916 1179 542148 1.30874892064 99.908752877833 987 0.09998744031 0.100005260963 98.700004397499 9.8700009041686
83	2043071 27247 1179 542148 1.30874892064 99.908752877833 987 3 3 2961 8883
84	2070318 39940 1185 542172 1.308748940653 99.908753737812 987 0.09998744031 0.100005262298 98.700005237465 9.8700010721618
85	2110258 27256 1185 542172 1.308748940653 99.908753737812 987 4 4 3948 15792
86	2137514 39936 1191 542178 1.308748960667 99.908753765576 987 0.09998744031 0.100005262297 98.700005245215 9.8700010737118
87	2177450 27239 1191 542178 1.308748960667 99.908753765576 987 5 5 4935 24675
88	2204689 39910 1197 542160 1.308748980681 99.90875309918 987 0.09998744031 0.100005261631 98.700004558805 9.8700009364298
89	2244599 27243 1197 542160 1.308748980681 99.90875309918 987 6 6 5922 35532
90	2271842 39888 1203 542154 1.308749000695 99.90875303589 987 0.09998744031 0.10000526189 98.700004475501 9.870000919769
91	2311730 27227 1203 542154 1.308749000695 99.90875303589 987 7 7 6909 48363
92	2338957 1459 4960 542659 2 100 99 0 0 0 0
93	2340416 2060 4960 542659 2 100 99 0.02216 0.027187521078 2.471437521078 0.061709814202367
94	2342476 1459 4960 542659 2 100 99 0 0 0 0
95	2343935 1459 4961 542660 2 100 99 1 1 99 99
96	2345394 2061 4961 542660 2 100 99 0.022161 0.026890200142 2.471141200142 0.061693780084677
97	2347455 1459 4961 542660 2 100 99 0 0 0 0
98	2348914 1459 4962 542661 2 100 99 2 2 198 396
99	2350373 2061 4962 542661 2 100 99 0.022161 0.026950320226 2.471201320226 0.061697016981284
100	2352434 1558 4962 542661 2 100 99 0 0 0 0
101	2353992 1558 4963 542662 2 100 99 3 3 297 891
102	2355550 2159 4963 542662 2 100 99 0.022161 0.02689024017 2.47114124017 0.0616937822374
103	2357709 1558 4963 542662 2 100 99 0 0 0 0
104	2359267 1558 4964 542663 2 100 99 4 4 396 1584
105	2360825 2160 4964 542663 2 100 99 0.022161 0.027045280198 2.471296280198 0.061702144401988
106	2362985 1558 4964 542663 2 100 99 0 0 0 0
107	2364543 1558 4965 542664 2 100 99 5 5 495 2475
108	2366101 2160 4965 542664 2 100 99 0.022161 0.027045280198 2.471296280198 0.061702144401988
109	2368261 1558 4965 542664 2 100 99 0 0 0 0
110	2369819 1558 4966 542665 2 100 99 6 6 594 3564
111	2371377 2159 4966 542665 2 100 99 0.022161 0.02689024017 2.47114124017 0.0616937822374
112	2373536 1558 4966 542665 2 100 99 0 0 0 0
113	2375094 1558 4967 542666 2 100 99 7 7 693 4851
114	2376652 2160 4967 542666 2 100 99 0.022161 0.026890280198 2.471141280198 0.061693784390127
115	2378812 1558 4967 542666 2 100 99 0 0 0 0

