file 2399468 1720583460                                         
version 3
run BreakRanksNoGui-21-20240710-05:50:51-234294
attr configname BreakRanksNoGui
attr datetime 20240710-05:50:51
attr datetimef 20240710-055051
attr experiment BreakRanksNoGui
attr inifile omnetpp.ini
attr iterationvars "$nCars=8, $platoonSize=8, $nLanes=1, $ploegH=0.5, $controller=1, $headway=0.1, $leaderHeadway=1.2, $leaderSpeed=130, $breakRanksSafetyDistance=2, $minSpeed=120, $maxSpeed=140, $beaconInterval=0.1, $priority=4, $packetSize=200, $sController=\"CACC\", $0=2, $1=0"
attr iterationvarsd nCars=8/platoonSize=8/nLanes=1/ploegH=0.5/controller=1/headway=0.1/leaderHeadway=1.2/leaderSpeed=130/breakRanksSafetyDistance=2/minSpeed=120/maxSpeed=140/beaconInterval=0.1/priority=4/packetSize=200/sController=CACC/2/0
attr iterationvarsf nCars=8,platoonSize=8,nLanes=1,ploegH=0.5,controller=1,headway=0.1,leaderHeadway=1.2,leaderSpeed=130,breakRanksSafetyDistance=2,minSpeed=120,maxSpeed=140,beaconInterval=0.1,priority=4,packetSize=200,sController=CACC,2,0-
attr measurement "$nCars=8, $platoonSize=8, $nLanes=1, $ploegH=0.5, $controller=1, $headway=0.1, $leaderHeadway=1.2, $leaderSpeed=130, $breakRanksSafetyDistance=2, $minSpeed=120, $maxSpeed=140, $beaconInterval=0.1, $priority=4, $packetSize=200, $sController=\"CACC\", $0=2, $1=0"
attr network Highway
attr processid 234294
attr repetition 1
attr replication #1
attr resultdir results
attr runnumber 21
attr seedset 1
itervar beaconInterval 0.1
itervar breakRanksSafetyDistance 2
itervar controller 1
itervar headway 0.1
itervar leaderHeadway 1.2
itervar leaderSpeed 130
itervar maxSpeed 140
itervar minSpeed 120
itervar nCars 8
itervar nLanes 1
itervar packetSize 200
itervar platoonSize 8
itervar ploegH 0.5
itervar priority 4
itervar sController "\"CACC\""
config image-path ../../../veins/images
config repeat 10
config extends BreakRanks
config *.manager.command "\"sumo\""
config *.manager.ignoreGuiCommands true
config output-vector-file results/BreakRanks_1_0.1_130_2/result_1.vec
config output-scalar-file results/BreakRanks_1_0.1_130_2/result_1.sca
config extends Platooning
config *.node[*].scenario_type "\"BreakRanksScenario\""
config *.manager.command "\"sumo-gui\""
config *.node[*].scenario_type "\"SimpleScenario\""
config cmdenv-express-mode true
config cmdenv-autoflush true
config cmdenv-status-frequency 15s
config num-rngs 6
config network Highway
config debug-on-errors true
config print-undisposed true
config *.playgroundSizeX 65000m
config *.playgroundSizeY 25000m
config *.playgroundSizeZ 50m
config sim-time-limit "100 s"
config *.annotations.draw false
config *.obstacles.debug false
config *.world.useTorus false
config *.world.use2D false
config *.manager.updateInterval 0.01s
config *.manager.host "\"localhost\""
config *.manager.moduleType "\"org.car2x.plexe.PlatoonCar\""
config *.manager.moduleName "\"node\""
config *.manager.moduleDisplayString "\"\""
config *.manager.autoShutdown true
config *.manager.margin 25
config *.connectionManager.sendDirect true
config *.connectionManager.maxInterfDist 2600m
config *.connectionManager.drawMaxIntfDist false
config *.**.nic.mac1609_4.useServiceChannel false
config *.**.nic.mac1609_4.txPower 100mW
config *.**.nic.mac1609_4.bitrate 6Mbps
config *.**.nic.mac1609_4.useAcks true
config *.**.nic.mac1609_4.ackErrorRate 0.0
config *.**.nic.mac1609_4.frameErrorRate 0.0
config *.**.nic.phy80211p.minPowerLevel -94dBm
config *.**.nic.phy80211p.maxTXPower 100mW
config *.**.nic.phy80211p.useNoiseFloor true
config *.**.nic.phy80211p.noiseFloor -95dBm
config *.**.nic.phy80211p.decider "xmldoc(\"config.xml\")"
config *.**.nic.phy80211p.analogueModels "xmldoc(\"config.xml\")"
config *.**.nic.phy80211p.usePropagationDelay true
config *.node[*].mobility.x 0
config *.node[*].mobility.y 0
config *.node[*].mobility.z 1.895
config seed-set 1
config **.seed 1
config *.node[*].prot.rng-0 2
config *.node[*].appl.rng-0 3
config *.node[*].scenario.rng-0 4
config **.traffic.rng-0 5
config *.manager.configFile "\"./sumocfg/freeway.sumo.cfg\""
config *.manager.launchConfig "xmldoc(\"./sumocfg/freeway.launchd.xml\")"
config **.numberOfCars 8
config **.numberOfCarsPerPlatoon 8
config **.numberOfLanes 1
config *.node[*].helper_type "\"PositionHelper\""
config *.node[*].scenario.caccC1 0.5
config *.node[*].scenario.caccXi 1
config *.node[*].scenario.caccOmegaN "0.2 Hz"
config *.node[*].scenario.caccSpacing "2 m"
config *.node[*].scenario.engineTau "0.5 s"
config *.node[*].scenario.ploegH 0.5s
config *.node[*].scenario.ploegKp 0.2
config *.node[*].scenario.ploegKd 0.7
config *.node[*].scenario.useRealisticEngine false
config *.node[*].scenario.useControllerAcceleration true
config *.node[*].scenario.nLanes 1
config **.numericController 1
config **.headway 0.1s
config *.node[*].scenario.accHeadway 0.1s
config *.node[*].scenario.leaderHeadway 1.2s
config *.node[*].scenario.leaderSpeed 130kmph
config *.node[*].appl_type "\"SimplePlatooningApp\""
config *.node[*].appl.*.scalar-recording true
config *.node[*].appl.*.vector-recording true
config *.node[0].appl.breakRanksSafetyDistance 2m
config *.node[*].appl.minSpeed 120kmph
config *.node[*].appl.maxSpeed 140kmph
config *.node[*].protocol_type "\"SimplePlatooningBeaconing\""
config *.node[*].prot.*.scalar-recording true
config *.node[*].prot.*.vector-recording true
config *.node[*].prot.beaconingInterval 0.1s
config *.node[*].prot.priority 4
config *.node[*].prot.packetSize 200
config **.traffic_type "\"PlatoonsTrafficManager\""
config **.traffic.platoonInsertTime "1 s"
config **.traffic.platoonInsertSpeed 130kmph
config **.traffic.nCars 8
config **.traffic.platoonSize 8
config **.traffic.nLanes 1
config **.traffic.platooningVType "\"vtypeauto\""
config **.traffic.controller "\"CACC\""
config **.traffic.platoonInsertDistance 2m
config **.traffic.platoonInsertHeadway 0s
config **.traffic.platoonLeaderHeadway 1.2s
config **.scalar-recording false
config **.vector-recording false

vector 0 Highway.node[0].appl distance ETV
vector 1 Highway.node[0].appl relativeSpeed ETV
vector 2 Highway.node[0].appl nodeId ETV
vector 3 Highway.node[0].appl acceleration ETV
vector 4 Highway.node[0].appl controllerAcceleration ETV
vector 5 Highway.node[0].appl speed ETV
vector 6 Highway.node[0].appl posx ETV
vector 7 Highway.node[0].appl posy ETV
vector 8 Highway.node[1].appl distance ETV
vector 9 Highway.node[1].appl relativeSpeed ETV
vector 10 Highway.node[1].appl nodeId ETV
vector 11 Highway.node[1].appl acceleration ETV
vector 12 Highway.node[1].appl controllerAcceleration ETV
vector 13 Highway.node[1].appl speed ETV
vector 14 Highway.node[1].appl posx ETV
vector 15 Highway.node[1].appl posy ETV
vector 16 Highway.node[2].appl distance ETV
vector 17 Highway.node[2].appl relativeSpeed ETV
vector 18 Highway.node[2].appl nodeId ETV
vector 19 Highway.node[2].appl acceleration ETV
vector 20 Highway.node[2].appl controllerAcceleration ETV
vector 21 Highway.node[2].appl speed ETV
vector 22 Highway.node[2].appl posx ETV
vector 23 Highway.node[2].appl posy ETV
vector 24 Highway.node[3].appl distance ETV
vector 25 Highway.node[3].appl relativeSpeed ETV
vector 26 Highway.node[3].appl nodeId ETV
vector 27 Highway.node[3].appl acceleration ETV
vector 28 Highway.node[3].appl controllerAcceleration ETV
vector 29 Highway.node[3].appl speed ETV
vector 30 Highway.node[3].appl posx ETV
vector 31 Highway.node[3].appl posy ETV
vector 32 Highway.node[4].appl distance ETV
vector 33 Highway.node[4].appl relativeSpeed ETV
vector 34 Highway.node[4].appl nodeId ETV
vector 35 Highway.node[4].appl acceleration ETV
vector 36 Highway.node[4].appl controllerAcceleration ETV
vector 37 Highway.node[4].appl speed ETV
vector 38 Highway.node[4].appl posx ETV
vector 39 Highway.node[4].appl posy ETV
vector 40 Highway.node[5].appl distance ETV
vector 41 Highway.node[5].appl relativeSpeed ETV
vector 42 Highway.node[5].appl nodeId ETV
vector 43 Highway.node[5].appl acceleration ETV
vector 44 Highway.node[5].appl controllerAcceleration ETV
vector 45 Highway.node[5].appl speed ETV
vector 46 Highway.node[5].appl posx ETV
vector 47 Highway.node[5].appl posy ETV
vector 48 Highway.node[6].appl distance ETV
vector 49 Highway.node[6].appl relativeSpeed ETV
vector 50 Highway.node[6].appl nodeId ETV
vector 51 Highway.node[6].appl acceleration ETV
vector 52 Highway.node[6].appl controllerAcceleration ETV
vector 53 Highway.node[6].appl speed ETV
vector 54 Highway.node[6].appl posx ETV
vector 55 Highway.node[6].appl posy ETV
vector 56 Highway.node[7].appl distance ETV
vector 57 Highway.node[7].appl relativeSpeed ETV
vector 58 Highway.node[7].appl nodeId ETV
vector 59 Highway.node[7].appl acceleration ETV
vector 60 Highway.node[7].appl controllerAcceleration ETV
vector 61 Highway.node[7].appl speed ETV
vector 62 Highway.node[7].appl posx ETV
vector 63 Highway.node[7].appl posy ETV
vector 64 Highway.node[2].prot frontDelay ETV
vector 65 Highway.node[2].prot frontDelayId ETV
vector 66 Highway.node[4].prot frontDelay ETV
vector 67 Highway.node[4].prot frontDelayId ETV
vector 68 Highway.node[6].prot frontDelay ETV
vector 69 Highway.node[6].prot frontDelayId ETV
vector 70 Highway.node[7].prot frontDelay ETV
vector 71 Highway.node[7].prot frontDelayId ETV
vector 72 Highway.node[5].prot frontDelay ETV
vector 73 Highway.node[5].prot frontDelayId ETV
vector 74 Highway.node[1].prot leaderDelay ETV
vector 75 Highway.node[1].prot leaderDelayId ETV
vector 76 Highway.node[1].prot frontDelay ETV
vector 77 Highway.node[1].prot frontDelayId ETV
vector 78 Highway.node[2].prot leaderDelay ETV
vector 79 Highway.node[2].prot leaderDelayId ETV
vector 80 Highway.node[3].prot leaderDelay ETV
vector 81 Highway.node[3].prot leaderDelayId ETV
vector 82 Highway.node[4].prot leaderDelay ETV
vector 83 Highway.node[4].prot leaderDelayId ETV
vector 84 Highway.node[5].prot leaderDelay ETV
vector 85 Highway.node[5].prot leaderDelayId ETV
vector 86 Highway.node[6].prot leaderDelay ETV
vector 87 Highway.node[6].prot leaderDelayId ETV
vector 88 Highway.node[7].prot leaderDelay ETV
vector 89 Highway.node[7].prot leaderDelayId ETV
vector 90 Highway.node[3].prot frontDelay ETV
vector 91 Highway.node[3].prot frontDelayId ETV
vector 92 Highway.node[0].prot nodeId ETV
vector 93 Highway.node[0].prot busyTime ETV
vector 94 Highway.node[0].prot collisions ETV
vector 95 Highway.node[1].prot nodeId ETV
vector 96 Highway.node[1].prot busyTime ETV
vector 97 Highway.node[1].prot collisions ETV
vector 98 Highway.node[2].prot nodeId ETV
vector 99 Highway.node[2].prot busyTime ETV
vector 100 Highway.node[2].prot collisions ETV
vector 101 Highway.node[3].prot nodeId ETV
vector 102 Highway.node[3].prot busyTime ETV
vector 103 Highway.node[3].prot collisions ETV
vector 104 Highway.node[4].prot nodeId ETV
vector 105 Highway.node[4].prot busyTime ETV
vector 106 Highway.node[4].prot collisions ETV
vector 107 Highway.node[5].prot nodeId ETV
vector 108 Highway.node[5].prot busyTime ETV
vector 109 Highway.node[5].prot collisions ETV
vector 110 Highway.node[6].prot nodeId ETV
vector 111 Highway.node[6].prot busyTime ETV
vector 112 Highway.node[6].prot collisions ETV
vector 113 Highway.node[7].prot nodeId ETV
vector 114 Highway.node[7].prot busyTime ETV
vector 115 Highway.node[7].prot collisions ETV
0	11185 19520 113 542135 1.11 99.91 989 -1 69.1483 20495.7961 1126019.3738703
1	30705 19069 113 542135 1.11 99.91 989 0 1.12869 366.996529 329.72286382993
2	49774 16523 113 542135 1.11 99.91 989 0 0 0 0
3	66297 21877 113 542135 1.11 99.91 989 -0.18888 0.106665 0.0084934291850678 0.55430578331545
4	88174 26411 113 542135 1.11 99.91 989 -0.325952 0.114012 -0.037997883261266 0.87717513283751
5	114585 22435 113 542135 1.11 99.91 989 35.8713 36.1185 35707.1442 1289182.3321921
6	137020 22345 113 542135 1.11 99.91 989 52.8599 3619.96 1816282.2608 4386214503.5655
7	159365 21468 113 542135 1.11 99.91 989 242.45 242.45 239783.05 58135400.472499
8	180833 18498 114 542136 1.11 99.91 989 -1 45.1255 4023.07747 183814.66125364
9	199331 18170 114 542136 1.11 99.91 989 -2.36679e-05 1.20088 123.06605455775 128.91364282631
10	217501 17512 114 542136 1.11 99.91 989 1 1 989 989
11	235013 26982 114 542136 1.11 99.91 989 -0.166305 0.57215 8.9249093850623 4.3888731001226
12	261995 27376 114 542136 1.11 99.91 989 -0.289451 0.888767 9.0237758275754 6.653695788243
13	289371 19939 114 542136 1.11 99.91 989 36.11 37.0397 36499.0728 1347068.2289237
14	309310 23397 114 542136 1.11 99.91 989 46.8599 3693.11 1845689.8482 4546382266.2464
15	332707 22457 114 542136 1.11 99.91 989 242.45 245.75 241393.45 58921597.752499
16	355164 23280 115 542137 1.11 99.91 989 2 45.3277 36766.99989 1555121.578475
17	378444 25358 115 542137 1.11 99.91 989 -0.126656 3.1981 373.27416589981 652.10900080558
18	403802 17512 115 542137 1.11 99.91 989 2 2 1978 3956
19	421314 26183 115 542137 1.11 99.91 989 -2.02228 0.353912 0.060562875710006 54.642666825095
20	447497 26170 115 542137 1.11 99.91 989 -3.08596 0.399174 1.4559245873301 75.799885867914
21	473667 23323 115 542137 1.11 99.91 989 32.913 36.1111 35333.8691 1262875.3361737
22	496990 23320 115 542137 1.11 99.91 989 40.8599 3570.64 1775019.156 4216520361.7352
23	520310 22457 115 542137 1.11 99.91 989 242.45 242.45 239783.05 58135400.472499
24	542767 23307 116 542138 1.11 99.91 989 2 109.341 54825.36416 4035557.0550191
25	566074 23947 116 542138 1.11 99.91 989 0 3.57768 1073.9604620723 1564.7657801454
26	590021 17512 116 542138 1.11 99.91 989 3 3 2967 8901
27	607533 22586 116 542138 1.11 99.91 989 -2.88427 0.676211 -11.041050066895 166.40406173538
28	630119 26796 116 542138 1.11 99.91 989 -3.60524 0.726201 -9.4745797726192 200.78905518822
29	656915 20299 116 542138 1.11 99.91 989 29.6066 36.1111 34259.9076 1188382.0285996
30	677214 22753 116 542138 1.11 99.91 989 34.8599 3457.3 1716241.011 3946299682.4838
31	699967 22457 116 542138 1.11 99.91 989 242.45 242.45 239783.05 58135400.472499
32	722424 23227 117 542139 1.11 99.91 989 0.385609 159.026 70204.913499 7109590.559051
33	745651 20057 117 542139 1.11 99.91 989 -1.39994e-06 8.32158 2096.5571673658 6006.4930560422
34	765708 17512 117 542139 1.11 99.91 989 4 4 3956 15824
35	783220 21895 117 542139 1.11 99.91 989 -3.14921 1.49848 -31.026806558889 313.26529701526
36	805115 27499 117 542139 1.11 99.91 989 -3.60808 1.5 -29.206706548337 363.69743087478
37	832614 19805 117 542139 1.11 99.91 989 26.9534 36.1111 32688.6501 1082479.2034184
38	852419 23418 117 542139 1.11 99.91 989 28.8599 3294.27 1647701.7498 3617940545.9034
39	875837 22457 117 542139 1.11 99.91 989 242.45 245.75 240416.65 58444723.992499
40	898294 22780 118 542140 1.11 99.91 989 -1 142.838 58497.12681 5287272.0455015
41	921074 19604 118 542140 1.11 99.91 989 -2.63733e-06 4.13527 1140.3025128637 1976.1118296441
42	940678 17512 118 542140 1.11 99.91 989 5 5 4945 24725
43	958190 21704 118 542140 1.11 99.91 989 -3.08413 1.36333 -1.0720955031407 111.34085024323
44	979894 27166 118 542140 1.11 99.91 989 -3.60808 1.5 2.3971004269828 185.44897861517
45	1007060 19646 118 542140 1.11 99.91 989 32.7483 36.1111 35525.4438 1276285.7434506
46	1026706 22430 118 542140 1.11 99.91 989 22.8599 3571.8 1774643.3271 4226102593.9635
47	1049136 22457 118 542140 1.11 99.91 989 242.45 245.75 242713.45 59566021.7525
48	1071593 18811 119 542141 1.11 99.91 989 -1 2.00002 -694.99884 1283.0046400212
49	1090404 18472 119 542141 1.11 99.91 989 -1.92774e-06 9.8581e-06 0.000227469606 1.1066797671565e-09
50	1108876 17512 119 542141 1.11 99.91 989 6 6 5934 35604
51	1126388 21642 119 542141 1.11 99.91 989 -2.81257 1.48336 18.949425367254 100.69091911416
52	1148030 27714 119 542141 1.11 99.91 989 -3.60808 1.5 22.373574306813 174.18695327447
53	1175744 19614 119 542141 1.11 99.91 989 33.7973 38.1028 37290.8276 1406693.4149624
54	1195358 23425 119 542141 1.11 99.91 989 16.8599 3742.24 1846606.171 4604875610.0644
55	1218783 22457 119 542141 1.11 99.91 989 242.45 249.05 243917.95 60164513.0525
56	1241240 22890 120 542142 1.11 99.91 989 -1 281.074 133143.5955 25146595.307178
57	1264130 19263 120 542142 1.11 99.91 989 -0.552603 8.10456 2771.0742684624 9998.4615436969
58	1283393 17512 120 542142 1.11 99.91 989 7 7 6923 48461
59	1300905 21790 120 542142 1.11 99.91 989 -2.91171 1.48992 -31.107386379925 249.38629007163
60	1322695 27593 120 542142 1.11 99.91 989 -3.60808 1.5 -30.803945489139 316.52631171172
61	1350288 19724 120 542142 1.11 99.91 989 28.3879 36.1111 32793.2051 1088757.2626327
62	1370012 23421 120 542142 1.11 99.91 989 10.8599 3286.72 1638720.0362 3592287043.7872
63	1393433 22457 120 542142 1.11 99.91 989 242.45 252.35 243469.15 59941423.1525
64	1415890 40040 702 542190 1.212421340237 99.912425008415 988 0.099987320224 0.100004942028 98.800003988401 9.8800008221656
65	1455930 27282 702 542190 1.212421340237 99.912425008415 988 2 2 1976 3952
66	1483212 40006 770 542258 1.235022380265 99.935026930511 988 0.099987320225 0.100004943065 98.800004870469 9.8800009985542
67	1523218 27256 770 542258 1.235022380265 99.935026930511 988 4 4 3952 15808
68	1550474 40006 837 542331 1.248692420293 99.948697337611 988 0.099987320225 0.100004943398 98.800005237541 9.8800010719733
69	1590480 27265 837 542331 1.248692420293 99.948697337611 988 6 6 5928 35568
70	1617745 40021 905 542411 1.263870440307 99.963876858077 988 0.099987320226 0.100004945066 98.800006737993 9.8800013720433
71	1657766 27275 905 542411 1.263870440307 99.963876858077 988 7 7 6916 48412
72	1685041 40025 1040 542528 1.297372520363 99.997366812249 988 0.099987320224 0.100004941397 98.799994612109 9.879998946974
73	1725066 27282 1040 542528 1.297372520363 99.997366812249 988 5 5 4940 24700
74	1752348 40021 1100 542588 1.297782600418 99.99779021714 988 0.099987320223 0.100009646192 98.799994936945 9.879999012224
75	1792369 27283 1100 542588 1.297782600418 99.99779021714 988 1 1 988 988
76	1819652 40021 1100 542588 1.297782600418 99.99779021714 988 0.099987320223 0.100009646192 98.799994936945 9.879999012224
77	1859673 27283 1100 542588 1.297782600418 99.99779021714 988 1 1 988 988
78	1886956 40049 1106 542582 1.297782620432 99.997790137417 988 0.099987320223 0.100009643368 98.799994837208 9.8799989922766
79	1927005 27286 1106 542582 1.297782620432 99.997790137417 988 2 2 1976 3952
80	1954291 40027 1112 542600 1.297782640446 99.997790515813 988 0.099987320223 0.100009643368 98.79999519559 9.879999063953
81	1994318 27278 1112 542600 1.297782640446 99.997790515813 988 3 3 2964 8892
82	2021596 40032 1118 542606 1.297782660459 99.997791060209 988 0.099987320223 0.100009643368 98.799995719973 9.8799991688296
83	2061628 27290 1118 542606 1.297782660459 99.997791060209 988 4 4 3952 15808
84	2088918 40039 1124 542576 1.297782680473 99.997790133947 988 0.099987320223 0.100009643368 98.799994773697 9.8799989795744
85	2128957 27299 1124 542576 1.297782680473 99.997790133947 988 5 5 4940 24700
86	2156256 40034 1130 542594 1.297782700487 99.997790381305 988 0.099987320223 0.100009643368 98.799995001041 9.8799990250432
87	2196290 27271 1130 542594 1.297782700487 99.997790381305 988 6 6 5928 35568
88	2223561 40014 1136 542612 1.297782720501 99.99779108543 988 0.099987320223 0.100009643368 98.799995685152 9.8799991618654
89	2263575 27277 1136 542612 1.297782720501 99.99779108543 988 7 7 6916 48412
90	2290852 39966 1173 542109 1.307201640446 99.907204569376 987 0.099987320226 0.100004941804 98.700003249153 9.8700006742674
91	2330818 27234 1173 542109 1.307201640446 99.907204569376 987 3 3 2961 8883
92	2358052 1459 4960 542614 2 100 99 0 0 0 0
93	2359511 2061 4960 542614 2 100 99 0.022161 0.027139441022 2.471390441022 0.061707246479987
94	2361572 1459 4960 542614 2 100 99 0 0 0 0
95	2363031 1459 4961 542615 2 100 99 1 1 99 99
96	2364490 2061 4961 542615 2 100 99 0.022161 0.026842360254 2.471093360254 0.061691209525005
97	2366551 1459 4961 542615 2 100 99 0 0 0 0
98	2368010 1459 4962 542616 2 100 99 2 2 198 396
99	2369469 2060 4962 542616 2 100 99 0.02216 0.026842280198 2.471092280198 0.061691160906228
100	2371529 1558 4962 542616 2 100 99 0 0 0 0
101	2373087 1558 4963 542617 2 100 99 3 3 297 891
102	2374645 2160 4963 542617 2 100 99 0.022161 0.026842400282 2.471093400282 0.061691211673899
103	2376805 1558 4963 542617 2 100 99 0 0 0 0
104	2378363 1558 4964 542618 2 100 99 4 4 396 1584
105	2379921 2160 4964 542618 2 100 99 0.022161 0.026842280198 2.471093280198 0.061691205227228
106	2382081 1558 4964 542618 2 100 99 0 0 0 0
107	2383639 1558 4965 542619 2 100 99 5 5 495 2475
108	2385197 2160 4965 542619 2 100 99 0.022161 0.026935520368 2.471186520368 0.061696219478495
109	2387357 1558 4965 542619 2 100 99 0 0 0 0
110	2388915 1558 4966 542620 2 100 99 6 6 594 3564
111	2390473 2160 4966 542620 2 100 99 0.022161 0.026842320226 2.471093320226 0.061691207376115
112	2392633 1558 4966 542620 2 100 99 0 0 0 0
113	2394191 1558 4967 542621 2 100 99 7 7 693 4851
114	2395749 2160 4967 542621 2 100 99 0.022161 0.026935600424 2.471186600424 0.061696223791201
115	2397909 1558 4967 542621 2 100 99 0 0 0 0

