version 3
run BreakRanksNoGui-28-20240710-05:52:02-234371
attr configname BreakRanksNoGui
attr datetime 20240710-05:52:02
attr datetimef 20240710-055202
attr experiment BreakRanksNoGui
attr inifile omnetpp.ini
attr iterationvars "$nCars=8, $platoonSize=8, $nLanes=1, $ploegH=0.5, $controller=1, $headway=0.1, $leaderHeadway=1.2, $leaderSpeed=130, $breakRanksSafetyDistance=2, $minSpeed=120, $maxSpeed=140, $beaconInterval=0.1, $priority=4, $packetSize=200, $sController=\"CACC\", $0=2, $1=0"
attr iterationvarsd nCars=8/platoonSize=8/nLanes=1/ploegH=0.5/controller=1/headway=0.1/leaderHeadway=1.2/leaderSpeed=130/breakRanksSafetyDistance=2/minSpeed=120/maxSpeed=140/beaconInterval=0.1/priority=4/packetSize=200/sController=CACC/2/0
attr iterationvarsf nCars=8,platoonSize=8,nLanes=1,ploegH=0.5,controller=1,headway=0.1,leaderHeadway=1.2,leaderSpeed=130,breakRanksSafetyDistance=2,minSpeed=120,maxSpeed=140,beaconInterval=0.1,priority=4,packetSize=200,sController=CACC,2,0-
attr measurement "$nCars=8, $platoonSize=8, $nLanes=1, $ploegH=0.5, $controller=1, $headway=0.1, $leaderHeadway=1.2, $leaderSpeed=130, $breakRanksSafetyDistance=2, $minSpeed=120, $maxSpeed=140, $beaconInterval=0.1, $priority=4, $packetSize=200, $sController=\"CACC\", $0=2, $1=0"
attr network Highway
attr processid 234371
attr repetition 8
attr replication #8
attr resultdir results
attr runnumber 28
attr seedset 8
itervar beaconInterval 0.1
itervar breakRanksSafetyDistance 2
itervar controller 1
itervar headway 0.1
itervar leaderHeadway 1.2
itervar leaderSpeed 130
itervar maxSpeed 140
itervar minSpeed 120
itervar nCars 8
itervar nLanes 1
itervar packetSize 200
itervar platoonSize 8
itervar ploegH 0.5
itervar priority 4
itervar sController "\"CACC\""
config image-path ../../../veins/images
config repeat 10
config extends BreakRanks
config *.manager.command "\"sumo\""
config *.manager.ignoreGuiCommands true
config output-vector-file results/BreakRanks_1_0.1_130_2/result_8.vec
config output-scalar-file results/BreakRanks_1_0.1_130_2/result_8.sca
config extends Platooning
config *.node[*].scenario_type "\"BreakRanksScenario\""
config *.manager.command "\"sumo-gui\""
config *.node[*].scenario_type "\"SimpleScenario\""
config cmdenv-express-mode true
config cmdenv-autoflush true
config cmdenv-status-frequency 15s
config num-rngs 6
config network Highway
config debug-on-errors true
config print-undisposed true
config *.playgroundSizeX 65000m
config *.playgroundSizeY 25000m
config *.playgroundSizeZ 50m
config sim-time-limit "100 s"
config *.annotations.draw false
config *.obstacles.debug false
config *.world.useTorus false
config *.world.use2D false
config *.manager.updateInterval 0.01s
config *.manager.host "\"localhost\""
config *.manager.moduleType "\"org.car2x.plexe.PlatoonCar\""
config *.manager.moduleName "\"node\""
config *.manager.moduleDisplayString "\"\""
config *.manager.autoShutdown true
config *.manager.margin 25
config *.connectionManager.sendDirect true
config *.connectionManager.maxInterfDist 2600m
config *.connectionManager.drawMaxIntfDist false
config *.**.nic.mac1609_4.useServiceChannel false
config *.**.nic.mac1609_4.txPower 100mW
config *.**.nic.mac1609_4.bitrate 6Mbps
config *.**.nic.mac1609_4.useAcks true
config *.**.nic.mac1609_4.ackErrorRate 0.0
config *.**.nic.mac1609_4.frameErrorRate 0.0
config *.**.nic.phy80211p.minPowerLevel -94dBm
config *.**.nic.phy80211p.maxTXPower 100mW
config *.**.nic.phy80211p.useNoiseFloor true
config *.**.nic.phy80211p.noiseFloor -95dBm
config *.**.nic.phy80211p.decider "xmldoc(\"config.xml\")"
config *.**.nic.phy80211p.analogueModels "xmldoc(\"config.xml\")"
config *.**.nic.phy80211p.usePropagationDelay true
config *.node[*].mobility.x 0
config *.node[*].mobility.y 0
config *.node[*].mobility.z 1.895
config seed-set 8
config **.seed 8
config *.node[*].prot.rng-0 2
config *.node[*].appl.rng-0 3
config *.node[*].scenario.rng-0 4
config **.traffic.rng-0 5
config *.manager.configFile "\"./sumocfg/freeway.sumo.cfg\""
config *.manager.launchConfig "xmldoc(\"./sumocfg/freeway.launchd.xml\")"
config **.numberOfCars 8
config **.numberOfCarsPerPlatoon 8
config **.numberOfLanes 1
config *.node[*].helper_type "\"PositionHelper\""
config *.node[*].scenario.caccC1 0.5
config *.node[*].scenario.caccXi 1
config *.node[*].scenario.caccOmegaN "0.2 Hz"
config *.node[*].scenario.caccSpacing "2 m"
config *.node[*].scenario.engineTau "0.5 s"
config *.node[*].scenario.ploegH 0.5s
config *.node[*].scenario.ploegKp 0.2
config *.node[*].scenario.ploegKd 0.7
config *.node[*].scenario.useRealisticEngine false
config *.node[*].scenario.useControllerAcceleration true
config *.node[*].scenario.nLanes 1
config **.numericController 1
config **.headway 0.1s
config *.node[*].scenario.accHeadway 0.1s
config *.node[*].scenario.leaderHeadway 1.2s
config *.node[*].scenario.leaderSpeed 130kmph
config *.node[*].appl_type "\"SimplePlatooningApp\""
config *.node[*].appl.*.scalar-recording true
config *.node[*].appl.*.vector-recording true
config *.node[0].appl.breakRanksSafetyDistance 2m
config *.node[*].appl.minSpeed 120kmph
config *.node[*].appl.maxSpeed 140kmph
config *.node[*].protocol_type "\"SimplePlatooningBeaconing\""
config *.node[*].prot.*.scalar-recording true
config *.node[*].prot.*.vector-recording true
config *.node[*].prot.beaconingInterval 0.1s
config *.node[*].prot.priority 4
config *.node[*].prot.packetSize 200
config **.traffic_type "\"PlatoonsTrafficManager\""
config **.traffic.platoonInsertTime "1 s"
config **.traffic.platoonInsertSpeed 130kmph
config **.traffic.nCars 8
config **.traffic.platoonSize 8
config **.traffic.nLanes 1
config **.traffic.platooningVType "\"vtypeauto\""
config **.traffic.controller "\"CACC\""
config **.traffic.platoonInsertDistance 2m
config **.traffic.platoonInsertHeadway 0s
config **.traffic.platoonLeaderHeadway 1.2s
config **.scalar-recording false
config **.vector-recording false

vector 0 Highway.node[0].appl distance ETV
vector 1 Highway.node[0].appl relativeSpeed ETV
vector 2 Highway.node[0].appl nodeId ETV
vector 3 Highway.node[0].appl acceleration ETV
vector 4 Highway.node[0].appl controllerAcceleration ETV
vector 5 Highway.node[0].appl speed ETV
vector 6 Highway.node[0].appl posx ETV
vector 7 Highway.node[0].appl posy ETV
vector 8 Highway.node[1].appl distance ETV
vector 9 Highway.node[1].appl relativeSpeed ETV
vector 10 Highway.node[1].appl nodeId ETV
vector 11 Highway.node[1].appl acceleration ETV
vector 12 Highway.node[1].appl controllerAcceleration ETV
vector 13 Highway.node[1].appl speed ETV
vector 14 Highway.node[1].appl posx ETV
vector 15 Highway.node[1].appl posy ETV
vector 16 Highway.node[2].appl distance ETV
vector 17 Highway.node[2].appl relativeSpeed ETV
vector 18 Highway.node[2].appl nodeId ETV
vector 19 Highway.node[2].appl acceleration ETV
vector 20 Highway.node[2].appl controllerAcceleration ETV
vector 21 Highway.node[2].appl speed ETV
vector 22 Highway.node[2].appl posx ETV
vector 23 Highway.node[2].appl posy ETV
vector 24 Highway.node[3].appl distance ETV
vector 25 Highway.node[3].appl relativeSpeed ETV
vector 26 Highway.node[3].appl nodeId ETV
vector 27 Highway.node[3].appl acceleration ETV
vector 28 Highway.node[3].appl controllerAcceleration ETV
vector 29 Highway.node[3].appl speed ETV
vector 30 Highway.node[3].appl posx ETV
vector 31 Highway.node[3].appl posy ETV
vector 32 Highway.node[4].appl distance ETV
vector 33 Highway.node[4].appl relativeSpeed ETV
vector 34 Highway.node[4].appl nodeId ETV
vector 35 Highway.node[4].appl acceleration ETV
vector 36 Highway.node[4].appl controllerAcceleration ETV
vector 37 Highway.node[4].appl speed ETV
vector 38 Highway.node[4].appl posx ETV
vector 39 Highway.node[4].appl posy ETV
vector 40 Highway.node[5].appl distance ETV
vector 41 Highway.node[5].appl relativeSpeed ETV
vector 42 Highway.node[5].appl nodeId ETV
vector 43 Highway.node[5].appl acceleration ETV
vector 44 Highway.node[5].appl controllerAcceleration ETV
vector 45 Highway.node[5].appl speed ETV
vector 46 Highway.node[5].appl posx ETV
vector 47 Highway.node[5].appl posy ETV
vector 48 Highway.node[6].appl distance ETV
vector 49 Highway.node[6].appl relativeSpeed ETV
vector 50 Highway.node[6].appl nodeId ETV
vector 51 Highway.node[6].appl acceleration ETV
vector 52 Highway.node[6].appl controllerAcceleration ETV
vector 53 Highway.node[6].appl speed ETV
vector 54 Highway.node[6].appl posx ETV
vector 55 Highway.node[6].appl posy ETV
vector 56 Highway.node[7].appl distance ETV
vector 57 Highway.node[7].appl relativeSpeed ETV
vector 58 Highway.node[7].appl nodeId ETV
vector 59 Highway.node[7].appl acceleration ETV
vector 60 Highway.node[7].appl controllerAcceleration ETV
vector 61 Highway.node[7].appl speed ETV
vector 62 Highway.node[7].appl posx ETV
vector 63 Highway.node[7].appl posy ETV
vector 64 Highway.node[4].prot frontDelay ETV
vector 65 Highway.node[4].prot frontDelayId ETV
vector 66 Highway.node[2].prot frontDelay ETV
vector 67 Highway.node[2].prot frontDelayId ETV
vector 68 Highway.node[3].prot frontDelay ETV
vector 69 Highway.node[3].prot frontDelayId ETV
vector 70 Highway.node[5].prot frontDelay ETV
vector 71 Highway.node[5].prot frontDelayId ETV
vector 72 Highway.node[7].prot frontDelay ETV
vector 73 Highway.node[7].prot frontDelayId ETV
vector 74 Highway.node[1].prot leaderDelay ETV
vector 75 Highway.node[1].prot leaderDelayId ETV
vector 76 Highway.node[1].prot frontDelay ETV
vector 77 Highway.node[1].prot frontDelayId ETV
vector 78 Highway.node[2].prot leaderDelay ETV
vector 79 Highway.node[2].prot leaderDelayId ETV
vector 80 Highway.node[3].prot leaderDelay ETV
vector 81 Highway.node[3].prot leaderDelayId ETV
vector 82 Highway.node[4].prot leaderDelay ETV
vector 83 Highway.node[4].prot leaderDelayId ETV
vector 84 Highway.node[5].prot leaderDelay ETV
vector 85 Highway.node[5].prot leaderDelayId ETV
vector 86 Highway.node[6].prot leaderDelay ETV
vector 87 Highway.node[6].prot leaderDelayId ETV
vector 88 Highway.node[7].prot leaderDelay ETV
vector 89 Highway.node[7].prot leaderDelayId ETV
vector 90 Highway.node[6].prot frontDelay ETV
vector 91 Highway.node[6].prot frontDelayId ETV
vector 92 Highway.node[0].prot nodeId ETV
vector 93 Highway.node[0].prot busyTime ETV
vector 94 Highway.node[0].prot collisions ETV
vector 95 Highway.node[1].prot nodeId ETV
vector 96 Highway.node[1].prot busyTime ETV
vector 97 Highway.node[1].prot collisions ETV
vector 98 Highway.node[2].prot nodeId ETV
vector 99 Highway.node[2].prot busyTime ETV
vector 100 Highway.node[2].prot collisions ETV
vector 101 Highway.node[3].prot nodeId ETV
vector 102 Highway.node[3].prot busyTime ETV
vector 103 Highway.node[3].prot collisions ETV
vector 104 Highway.node[4].prot nodeId ETV
vector 105 Highway.node[4].prot busyTime ETV
vector 106 Highway.node[4].prot collisions ETV
vector 107 Highway.node[5].prot nodeId ETV
vector 108 Highway.node[5].prot busyTime ETV
vector 109 Highway.node[5].prot collisions ETV
vector 110 Highway.node[6].prot nodeId ETV
vector 111 Highway.node[6].prot busyTime ETV
vector 112 Highway.node[6].prot collisions ETV
vector 113 Highway.node[7].prot nodeId ETV
vector 114 Highway.node[7].prot busyTime ETV
vector 115 Highway.node[7].prot collisions ETV
0	113	1.11	-1
0	659	1.21	-1
0	1205	1.31	-1
0	1751	1.41	-1
0	2297	1.51	-1
0	2843	1.61	-1
0	3389	1.71	-1
0	3935	1.81	-1
0	4481	1.91	-1
0	5035	2.01	-1
0	5581	2.11	-1
0	6127	2.21	-1
0	6673	2.31	-1
0	7219	2.41	-1
0	7765	2.51	-1
0	8311	2.61	-1
0	8857	2.71	-1
0	9403	2.81	-1
0	9949	2.91	-1
0	10503	3.01	-1
0	11049	3.11	-1
0	11595	3.21	-1
0	12141	3.31	-1
0	12687	3.41	-1
0	13233	3.51	-1
0	13779	3.61	-1
0	14325	3.71	-1
0	14871	3.81	-1
0	15417	3.91	-1
0	15971	4.01	-1
0	16517	4.11	-1
0	17063	4.21	-1
0	17609	4.31	-1
0	18155	4.41	-1
0	18701	4.51	-1
0	19247	4.61	-1
0	19793	4.71	-1
0	20339	4.81	-1
0	20885	4.91	-1
0	21439	5.01	-1
0	21985	5.11	-1
0	22531	5.21	-1
0	23077	5.31	-1
0	23623	5.41	-1
0	24169	5.51	-1
0	24715	5.61	-1
0	25261	5.71	-1
0	25807	5.81	-1
0	26353	5.91	-1
0	26907	6.01	-1
0	27453	6.11	-1
0	27999	6.21	-1
0	28545	6.31	-1
0	29091	6.41	-1
0	29637	6.51	-1
0	30183	6.61	-1
0	30729	6.71	-1
0	31275	6.81	-1
0	31821	6.91	-1
0	32375	7.01	-1
0	32921	7.11	-1
0	33467	7.21	-1
0	34013	7.31	-1
0	34559	7.41	-1
0	35105	7.51	-1
0	35651	7.61	-1
0	36197	7.71	-1
0	36743	7.81	-1
0	37289	7.91	-1
0	37843	8.01	-1
0	38389	8.11	-1
0	38935	8.21	-1
0	39481	8.31	-1
0	40027	8.41	-1
0	40573	8.51	-1
0	41119	8.61	-1
0	41665	8.71	-1
0	42211	8.81	-1
0	42757	8.91	-1
0	43311	9.01	-1
0	43857	9.11	-1
0	44403	9.21	-1
0	44949	9.31	-1
0	45495	9.41	-1
0	46041	9.51	-1
0	46587	9.61	-1
0	47133	9.71	-1
0	47679	9.81	-1
0	48225	9.91	-1
0	50805	10.01	-1
0	51351	10.11	-1
0	51897	10.21	-1
0	52443	10.31	-1
0	52989	10.41	-1
0	53535	10.51	-1
0	54081	10.61	-1
0	54627	10.71	-1
0	55173	10.81	-1
0	55719	10.91	-1
0	56273	11.01	-1
0	56819	11.11	-1
0	57365	11.21	-1
0	57911	11.31	-1
0	58457	11.41	-1
0	59003	11.51	-1
0	59549	11.61	-1
0	60095	11.71	-1
0	60641	11.81	-1
0	61187	11.91	-1
0	61741	12.01	-1
0	62287	12.11	-1
0	62833	12.21	-1
0	63379	12.31	-1
0	63925	12.41	-1
0	64471	12.51	-1
0	65017	12.61	-1
0	65563	12.71	-1
0	66109	12.81	-1
0	66655	12.91	-1
0	67209	13.01	-1
0	67755	13.11	-1
0	68301	13.21	-1
0	68847	13.31	-1
0	69393	13.41	-1
0	69939	13.51	-1
0	70485	13.61	-1
0	71031	13.71	-1
0	71577	13.81	-1
0	72123	13.91	-1
0	72677	14.01	-1
0	73223	14.11	-1
0	73769	14.21	-1
0	74315	14.31	-1
0	74861	14.41	-1
0	75407	14.51	-1
0	75953	14.61	-1
0	76499	14.71	-1
0	77045	14.81	-1
0	77591	14.91	-1
0	78145	15.01	-1
0	78691	15.11	-1
0	79237	15.21	-1
0	79783	15.31	-1
0	80329	15.41	-1
0	80875	15.51	-1
0	81421	15.61	-1
0	81967	15.71	-1
0	82513	15.81	-1
0	83059	15.91	-1
0	83613	16.01	-1
0	84159	16.11	-1
0	84705	16.21	-1
0	85251	16.31	-1
0	85797	16.41	-1
0	86343	16.51	-1
0	86889	16.61	-1
0	87435	16.71	-1
0	87981	16.81	-1
0	88527	16.91	-1
0	89081	17.01	-1
0	89627	17.11	-1
0	90173	17.21	-1
0	90719	17.31	-1
0	91265	17.41	-1
0	91811	17.51	-1
0	92357	17.61	-1
0	92903	17.71	-1
0	93449	17.81	-1
0	93995	17.91	-1
0	94549	18.01	-1
0	95095	18.11	-1
0	95641	18.21	-1
0	96187	18.31	-1
0	96733	18.41	-1
0	97279	18.51	-1
0	97825	18.61	-1
0	98371	18.71	-1
0	98917	18.81	-1
0	99463	18.91	-1
0	100017	19.01	-1
0	100563	19.11	-1
0	101109	19.21	-1
0	101655	19.31	-1
0	102201	19.41	-1
0	102747	19.51	-1
0	103293	19.61	-1
0	103839	19.71	-1
0	104385	19.81	-1
0	104931	19.91	-1
0	105485	20.01	-1
0	106031	20.11	-1
0	106577	20.21	-1
0	107123	20.31	-1
0	107669	20.41	-1
0	108215	20.51	-1
0	108761	20.61	-1
0	109307	20.71	-1
0	109853	20.81	-1
0	110399	20.91	-1
0	110953	21.01	-1
0	111499	21.11	-1
0	112045	21.21	-1
0	112591	21.31	-1
0	113137	21.41	-1
0	113683	21.51	-1
0	114229	21.61	-1
0	114775	21.71	-1
0	115321	21.81	-1
0	115867	21.91	-1
0	116421	22.01	-1
0	116967	22.11	-1
0	117513	22.21	-1
0	118059	22.31	-1
0	118605	22.41	-1
0	119151	22.51	-1
0	119697	22.61	-1
0	120243	22.71	-1
0	120789	22.81	-1
0	121335	22.91	-1
0	121889	23.01	-1
0	122435	23.11	-1
0	122981	23.21	-1
0	123527	23.31	-1
0	124073	23.41	-1
0	124619	23.51	-1
0	125165	23.61	-1
0	125711	23.71	-1
0	126257	23.81	-1
0	126803	23.91	-1
0	127357	24.01	-1
0	127903	24.11	-1
0	128449	24.21	-1
0	128995	24.31	-1
0	129541	24.41	-1
0	130087	24.51	-1
0	130633	24.61	-1
0	131179	24.71	-1
0	131725	24.81	-1
0	132271	24.91	-1
0	132825	25.01	-1
0	133371	25.11	-1
0	133917	25.21	-1
0	134463	25.31	-1
0	135009	25.41	-1
0	135555	25.51	-1
0	136101	25.61	-1
0	136647	25.71	-1
0	137193	25.81	-1
0	137739	25.91	-1
0	138293	26.01	-1
0	138839	26.11	-1
0	139385	26.21	-1
0	139931	26.31	-1
0	140477	26.41	-1
0	141023	26.51	-1
0	141569	26.61	-1
0	142115	26.71	-1
0	142661	26.81	-1
0	143207	26.91	-1
0	143761	27.01	-1
0	144307	27.11	-1
0	144853	27.21	-1
0	145399	27.31	-1
0	145945	27.41	-1
0	146491	27.51	-1
0	147037	27.61	-1
0	147583	27.71	-1
0	148129	27.81	-1
0	148675	27.91	-1
0	149229	28.01	-1
0	149775	28.11	-1
0	150321	28.21	-1
0	150867	28.31	-1
0	151413	28.41	-1
0	151959	28.51	-1
0	152505	28.61	-1
0	153051	28.71	-1
0	153597	28.81	-1
0	154143	28.91	-1
0	154697	29.01	-1
0	155243	29.11	-1
0	155789	29.21	-1
0	156335	29.31	-1
0	156881	29.41	-1
0	157427	29.51	-1
0	157973	29.61	-1
0	158519	29.71	-1
0	159065	29.81	-1
0	159611	29.91	-1
0	160165	30.01	-1
0	160711	30.11	-1
0	161257	30.21	-1
0	161803	30.31	-1
0	162349	30.41	-1
0	162895	30.51	-1
0	163441	30.61	-1
0	163987	30.71	-1
0	164533	30.81	-1
0	165079	30.91	-1
0	165633	31.01	-1
0	166179	31.11	-1
0	166725	31.21	-1
0	167271	31.31	-1
0	167817	31.41	-1
0	168363	31.51	-1
0	168909	31.61	-1
0	169455	31.71	-1
0	170001	31.81	-1
0	170547	31.91	-1
0	171101	32.01	-1
0	171647	32.11	-1
0	172193	32.21	-1
0	172739	32.31	-1
0	173285	32.41	-1
0	173831	32.51	-1
0	174377	32.61	-1
0	174923	32.71	-1
0	175469	32.81	-1
0	176015	32.91	-1
0	176569	33.01	-1
0	177115	33.11	-1
0	177661	33.21	-1
0	178207	33.31	-1
0	178753	33.41	-1
0	179299	33.51	-1
0	179845	33.61	-1
0	180391	33.71	-1
0	180937	33.81	-1
0	181483	33.91	-1
0	182037	34.01	-1
0	182583	34.11	-1
0	183129	34.21	-1
0	183675	34.31	-1
0	184221	34.41	-1
0	184767	34.51	-1
0	185313	34.61	-1
0	185859	34.71	-1
0	186405	34.81	-1
0	186951	34.91	-1
0	187505	35.01	-1
0	188051	35.11	-1
0	188597	35.21	-1
0	189143	35.31	-1
0	189689	35.41	-1
0	190235	35.51	-1
0	190781	35.61	-1
0	191327	35.71	-1
0	191873	35.81	-1
0	192419	35.91	-1
0	192973	36.01	-1
0	193519	36.11	-1
0	194065	36.21	-1
0	194611	36.31	-1
0	195157	36.41	-1
0	195703	36.51	-1
0	196249	36.61	-1
0	196795	36.71	-1
0	197341	36.81	-1
0	197887	36.91	-1
0	198441	37.01	-1
0	198987	37.11	-1
0	199533	37.21	-1
0	200079	37.31	-1
0	200625	37.41	-1
0	201171	37.51	-1
0	201717	37.61	-1
0	202263	37.71	-1
0	202809	37.81	-1
0	203355	37.91	-1
0	203909	38.01	-1
0	204455	38.11	-1
0	205001	38.21	-1
0	205547	38.31	-1
0	206093	38.41	-1
0	206639	38.51	-1
0	207185	38.61	-1
0	207731	38.71	-1
0	208277	38.81	-1
0	208823	38.91	-1
0	209377	39.01	-1
0	209923	39.11	-1
0	210469	39.21	-1
0	211015	39.31	-1
0	211561	39.41	-1
0	212107	39.51	-1
0	212653	39.61	-1
0	213199	39.71	-1
0	213745	39.81	-1
0	214291	39.91	-1
0	214845	40.01	-1
0	215391	40.11	-1
0	215937	40.21	-1
0	216483	40.31	-1
0	217029	40.41	-1
0	217575	40.51	-1
0	218121	40.61	-1
0	218667	40.71	-1
0	219213	40.81	-1
0	219759	40.91	-1
0	220313	41.01	-1
0	220859	41.11	-1
0	221405	41.21	-1
0	221951	41.31	-1
0	222497	41.41	-1
0	223043	41.51	-1
0	223589	41.61	-1
0	224135	41.71	-1
0	224681	41.81	-1
0	225227	41.91	-1
0	225781	42.01	-1
0	226327	42.11	-1
0	226873	42.21	-1
0	227419	42.31	-1
0	227965	42.41	-1
0	228511	42.51	-1
0	229057	42.61	-1
0	229603	42.71	-1
0	230149	42.81	-1
0	230695	42.91	-1
0	231249	43.01	-1
0	231795	43.11	-1
0	232341	43.21	-1
0	232887	43.31	-1
0	233433	43.41	-1
0	233979	43.51	-1
0	234525	43.61	-1
0	235071	43.71	-1
0	235617	43.81	-1
0	236163	43.91	-1
0	236717	44.01	-1
0	237263	44.11	-1
0	237809	44.21	-1
0	238355	44.31	-1
0	238901	44.41	-1
0	239447	44.51	-1
0	239993	44.61	-1
0	240539	44.71	-1
0	241085	44.81	-1
0	241631	44.91	-1
0	242185	45.01	-1
0	242731	45.11	-1
0	243277	45.21	-1
0	243823	45.31	-1
0	244369	45.41	-1
0	244915	45.51	-1
0	245461	45.61	-1
0	246007	45.71	-1
0	246553	45.81	-1
0	247099	45.91	-1
0	247653	46.01	-1
0	248199	46.11	-1
0	248745	46.21	-1
0	249291	46.31	-1
0	249837	46.41	-1
0	250383	46.51	-1
0	250929	46.61	-1
0	251475	46.71	-1
0	252021	46.81	-1
0	252567	46.91	-1
0	253121	47.01	-1
0	253667	47.11	-1
0	254213	47.21	-1
0	254759	47.31	-1
0	255305	47.41	-1
0	255851	47.51	-1
0	256397	47.61	-1
0	256943	47.71	-1
0	257489	47.81	-1
0	258035	47.91	-1
0	258589	48.01	-1
0	259135	48.11	-1
0	259681	48.21	-1
0	260227	48.31	-1
0	260773	48.41	-1
0	261319	48.51	-1
0	261865	48.61	-1
0	262411	48.71	-1
0	262957	48.81	-1
0	263503	48.91	-1
0	264057	49.01	-1
0	264603	49.11	-1
0	265149	49.21	-1
0	265695	49.31	-1
0	266241	49.41	-1
0	266787	49.51	-1
0	267333	49.61	-1
0	267879	49.71	-1
0	268425	49.81	-1
0	268971	49.91	-1
0	269525	50.01	-1
0	270071	50.11	-1
0	270617	50.21	-1
0	271163	50.31	-1
0	271709	50.41	-1
0	272255	50.51	-1
0	272801	50.61	-1
0	273347	50.71	-1
0	273893	50.81	-1
0	274439	50.91	-1
0	274993	51.01	-1
0	275539	51.11	-1
0	276085	51.21	-1
0	276631	51.31	-1
0	277177	51.41	-1
0	277723	51.51	-1
0	278269	51.61	-1
0	278815	51.71	-1
0	279361	51.81	-1
0	279907	51.91	-1
0	280461	52.01	-1
0	281007	52.11	-1
0	281553	52.21	-1
0	282099	52.31	-1
0	282645	52.41	-1
0	283191	52.51	-1
0	283737	52.61	-1
0	284283	52.71	-1
0	284829	52.81	-1
0	285375	52.91	-1
0	285929	53.01	-1
0	286475	53.11	-1
0	287021	53.21	-1
0	287567	53.31	-1
0	288113	53.41	-1
0	288659	53.51	-1
0	289205	53.61	-1
0	289751	53.71	-1
0	290297	53.81	-1
0	290843	53.91	-1
0	291397	54.01	-1
0	291943	54.11	-1
0	292489	54.21	-1
0	293035	54.31	-1
0	293581	54.41	-1
0	294127	54.51	-1
0	294673	54.61	-1
0	295219	54.71	-1
0	295765	54.81	-1
0	296311	54.91	-1
0	296865	55.01	-1
0	297411	55.11	-1
0	297957	55.21	-1
0	298503	55.31	-1
0	299049	55.41	-1
0	299595	55.51	-1
0	300141	55.61	-1
0	300687	55.71	-1
0	301233	55.81	-1
0	301779	55.91	-1
0	302333	56.01	-1
0	302879	56.11	-1
0	303425	56.21	-1
0	303971	56.31	-1
0	304517	56.41	-1
0	305063	56.51	-1
0	305609	56.61	-1
0	306155	56.71	-1
0	306701	56.81	-1
0	307247	56.91	-1
0	307801	57.01	-1
0	308347	57.11	-1
0	308893	57.21	-1
0	309439	57.31	-1
0	309985	57.41	-1
0	310531	57.51	-1
0	311077	57.61	-1
0	311623	57.71	-1
0	312169	57.81	-1
0	312715	57.91	-1
0	313269	58.01	-1
0	313815	58.11	-1
0	314361	58.21	-1
0	314907	58.31	-1
0	315453	58.41	-1
0	315999	58.51	-1
0	316545	58.61	-1
0	317091	58.71	-1
0	317637	58.81	-1
0	318183	58.91	32.5376
0	318737	59.01	32.6268
0	319283	59.11	32.7168
0	319829	59.21	32.8079
0	320375	59.31	32.9006
0	320921	59.41	32.995
0	321467	59.51	33.0911
0	322013	59.61	33.1892
0	322559	59.71	33.2892
0	323105	59.81	33.3909
0	323651	59.91	33.4945
0	324205	60.01	33.5997
0	324751	60.11	33.7064
0	325297	60.21	33.8144
0	325843	60.31	33.9237
0	326389	60.41	34.034
0	326935	60.51	34.1451
0	327481	60.61	34.2569
0	328027	60.71	34.3692
0	328573	60.81	34.4818
0	329119	60.91	34.5946
0	329673	61.01	34.7075
0	330219	61.11	34.8203
0	330765	61.21	34.9328
0	331311	61.31	35.0449
0	331857	61.41	35.1566
0	332403	61.51	35.2678
0	332949	61.61	35.3783
0	333495	61.71	35.4881
0	334041	61.81	35.597
0	334587	61.91	35.7051
0	335141	62.01	35.8124
0	335687	62.11	35.9186
0	336233	62.21	36.0239
0	336779	62.31	36.1282
0	337325	62.41	36.2315
0	337871	62.51	36.3337
0	338417	62.61	36.4348
0	338963	62.71	36.5349
0	339509	62.81	36.6339
0	340055	62.91	36.7319
0	340609	63.01	36.8288
0	341155	63.11	36.9247
0	341701	63.21	37.0197
0	342247	63.31	37.1139
0	342793	63.41	37.2072
0	343339	63.51	37.2998
0	343885	63.61	37.3916
0	344431	63.71	37.4829
0	344977	63.81	37.5737
0	345523	63.91	37.6639
0	346077	64.01	37.7537
0	346623	64.11	37.8432
0	347169	64.21	37.9324
0	347715	64.31	38.0213
0	348261	64.41	38.11
0	348807	64.51	38.1985
0	349353	64.61	38.287
0	349899	64.71	38.3753
0	350445	64.81	38.4635
0	350991	64.91	38.5517
0	351545	65.01	38.6398
0	352091	65.11	38.728
0	352637	65.21	38.8161
0	353183	65.31	38.9043
0	353729	65.41	38.9925
0	354275	65.51	39.0808
0	354821	65.61	39.169
0	355367	65.71	39.2574
0	355913	65.81	39.3457
0	356459	65.91	39.4342
0	357013	66.01	39.5226
0	357559	66.11	39.6111
0	358105	66.21	39.6997
0	358651	66.31	39.7883
0	359197	66.41	39.8769
0	359743	66.51	39.9656
0	360289	66.61	40.0543
0	360835	66.71	40.1431
0	361381	66.81	40.2318
0	361927	66.91	40.3206
0	362481	67.01	40.4095
0	363027	67.11	40.4983
0	363573	67.21	40.5872
0	364119	67.31	40.676
0	364665	67.41	40.7649
0	365211	67.51	40.8538
0	365757	67.61	40.9427
0	366303	67.71	41.0316
0	366849	67.81	41.1205
0	367395	67.91	41.2095
0	367949	68.01	41.2984
0	368495	68.11	41.3873
0	369041	68.21	41.4762
0	369587	68.31	41.5651
0	370133	68.41	41.6541
0	370679	68.51	41.743
0	371225	68.61	41.8319
0	371771	68.71	41.9208
0	372317	68.81	42.0097
0	372863	68.91	42.0987
0	373417	69.01	42.1876
0	373963	69.11	42.2765
0	374509	69.21	42.3654
0	375055	69.31	42.4543
0	375601	69.41	42.5432
0	376147	69.51	42.6321
0	376693	69.61	42.721
0	377239	69.71	42.8099
0	377785	69.81	42.8988
0	378331	69.91	42.9877
0	378885	70.01	43.0766
0	379431	70.11	43.1655
0	379977	70.21	43.2544
0	380523	70.31	43.3433
0	381069	70.41	43.4322
0	381615	70.51	43.521
0	382161	70.61	43.6099
0	382707	70.71	43.6988
0	383253	70.81	43.7877
0	383799	70.91	43.8766
0	384353	71.01	43.9655
0	384899	71.11	44.0544
0	385445	71.21	44.1433
0	385991	71.31	44.2322
0	386537	71.41	44.321
0	387083	71.51	44.4099
0	387629	71.61	44.4988
0	388175	71.71	44.5877
0	388721	71.81	44.6766
0	389267	71.91	44.7655
0	389821	72.01	44.8544
0	390367	72.11	44.9433
0	390913	72.21	45.0322
0	391459	72.31	45.121
0	392005	72.41	45.2099
0	392551	72.51	45.2988
0	393097	72.61	45.3877
0	393643	72.71	45.4766
0	394189	72.81	45.5655
0	394735	72.91	45.6544
0	395289	73.01	45.7433
0	395835	73.11	45.8322
0	396381	73.21	45.921
0	396927	73.31	46.0099
0	397473	73.41	46.0988
0	398019	73.51	46.1877
0	398565	73.61	46.2766
0	399111	73.71	46.3655
0	399657	73.81	46.4544
0	400203	73.91	46.5433
0	400757	74.01	46.6322
0	401303	74.11	46.7211
0	401849	74.21	46.8099
0	402395	74.31	46.8988
0	402941	74.41	46.9877
0	403487	74.51	47.0766
0	404033	74.61	47.1655
0	404579	74.71	47.2544
0	405125	74.81	47.3433
0	405671	74.91	47.4322
0	406225	75.01	47.5211
0	406771	75.11	47.61
0	407317	75.21	47.6988
0	407863	75.31	47.7877
0	408409	75.41	47.8766
0	408955	75.51	47.9655
0	409501	75.61	48.0544
0	410047	75.71	48.1433
0	410593	75.81	48.2322
0	411139	75.91	48.3211
0	411693	76.01	48.41
0	412239	76.11	48.4989
0	412785	76.21	48.5878
0	413331	76.31	48.6766
0	413877	76.41	48.7655
0	414423	76.51	48.8544
0	414969	76.61	48.9433
0	415515	76.71	49.0322
0	416061	76.81	49.1211
0	416607	76.91	49.21
0	417161	77.01	49.2989
0	417707	77.11	49.3878
0	418253	77.21	49.4767
0	418799	77.31	49.5655
0	419345	77.41	49.6544
0	419891	77.51	49.7433
0	420437	77.61	49.8322
0	420983	77.71	49.9211
0	421529	77.81	50.01
0	422075	77.91	50.0989
0	422629	78.01	50.1878
0	423175	78.11	50.2767
0	423721	78.21	50.3656
0	424267	78.31	50.4544
0	424813	78.41	50.5433
0	425359	78.51	50.6322
0	425905	78.61	50.7211
0	426451	78.71	50.81
0	426997	78.81	50.8989
0	427543	78.91	50.9878
0	428097	79.01	51.0767
0	428643	79.11	51.1656
0	429189	79.21	51.2545
0	429735	79.31	51.3433
0	430281	79.41	51.4322
0	430827	79.51	51.5211
0	431373	79.61	51.61
0	431919	79.71	51.6989
0	432465	79.81	51.7878
0	433011	79.91	51.8767
0	433565	80.01	51.9656
0	434111	80.11	52.0545
0	434657	80.21	52.1434
0	435203	80.31	52.2322
0	435749	80.41	52.3211
0	436295	80.51	52.41
0	436841	80.61	52.4989
0	437387	80.71	52.5878
0	437933	80.81	52.6767
0	438479	80.91	52.7656
0	439033	81.01	52.8545
0	439579	81.11	52.9434
0	440125	81.21	53.0323
0	440671	81.31	53.1211
0	441217	81.41	53.21
0	441763	81.51	53.2989
0	442309	81.61	53.3878
0	442855	81.71	53.4767
0	443401	81.81	53.5656
0	443947	81.91	53.6545
0	444501	82.01	53.7434
0	445047	82.11	53.8323
0	445593	82.21	53.9212
0	446139	82.31	54.01
0	446685	82.41	54.0989
0	447231	82.51	54.1878
0	447777	82.61	54.2767
0	448323	82.71	54.3656
0	448869	82.81	54.4545
0	449415	82.91	54.5434
0	449969	83.01	54.6323
0	450515	83.11	54.7212
0	451061	83.21	54.8101
0	451607	83.31	54.8989
0	452153	83.41	54.9878
0	452699	83.51	55.0767
0	453245	83.61	55.1656
0	453791	83.71	55.2545
0	454337	83.81	55.3434
0	454883	83.91	55.4323
0	455437	84.01	55.5212
0	455983	84.11	55.6101
0	456529	84.21	55.699
0	457075	84.31	55.7878
0	457621	84.41	55.8767
0	458167	84.51	55.9656
0	458713	84.61	56.0545
0	459259	84.71	56.1434
0	459805	84.81	56.2323
0	460351	84.91	56.3212
0	460905	85.01	56.4101
0	461451	85.11	56.499
0	461997	85.21	56.5879
0	462543	85.31	56.6767
0	463089	85.41	56.7656
0	463635	85.51	56.8545
0	464181	85.61	56.9434
0	464727	85.71	57.0323
0	465273	85.81	57.1212
0	465819	85.91	57.2101
0	466373	86.01	57.299
0	466919	86.11	57.3879
0	467465	86.21	57.4768
0	468011	86.31	57.5656
0	468557	86.41	57.6545
0	469103	86.51	57.7434
0	469649	86.61	57.8323
0	470195	86.71	57.9212
0	470741	86.81	58.0101
0	471287	86.91	58.099
0	471841	87.01	58.1879
0	472387	87.11	58.2768
0	472933	87.21	58.3657
0	473479	87.31	58.4545
0	474025	87.41	58.5434
0	474571	87.51	58.6323
0	475117	87.61	58.7212
0	475663	87.71	58.8101
0	476209	87.81	58.899
0	476755	87.91	58.9879
0	477309	88.01	59.0768
0	477855	88.11	59.1657
0	478401	88.21	59.2546
0	478947	88.31	59.3434
0	479493	88.41	59.4323
0	480039	88.51	59.5212
0	480585	88.61	59.6101
0	481131	88.71	59.699
0	481677	88.81	59.7879
0	482223	88.91	59.8768
0	482777	89.01	59.9657
0	483323	89.11	60.0546
0	483869	89.21	60.1435
0	484415	89.31	60.2323
0	484961	89.41	60.3212
0	485507	89.51	60.4101
0	486053	89.61	60.499
0	486599	89.71	60.5879
0	487145	89.81	60.6768
0	487691	89.91	60.7655
0	488245	90.01	60.8535
0	488791	90.11	60.9404
0	489337	90.21	61.0261
0	489883	90.31	61.1102
0	490429	90.41	61.1928
0	490975	90.51	61.2737
0	491521	90.61	61.3529
0	492067	90.71	61.4305
0	492613	90.81	61.5067
0	493159	90.91	61.5814
0	493713	91.01	61.6548
0	494259	91.11	61.7271
0	494805	91.21	61.7984
0	495351	91.31	61.8689
0	495897	91.41	61.9387
0	496443	91.51	62.0081
0	496989	91.61	62.0771
0	497535	91.71	62.1459
0	498081	91.81	62.2147
0	498627	91.91	62.2836
0	499181	92.01	62.3528
0	499727	92.11	62.4223
0	500273	92.21	62.4923
0	500819	92.31	62.5629
0	501365	92.41	62.6341
0	501911	92.51	62.7061
0	502457	92.61	62.7789
0	503003	92.71	62.8526
0	503549	92.81	62.9272
0	504095	92.91	63.0028
0	504649	93.01	63.0794
0	505195	93.11	63.1571
0	505741	93.21	63.2358
0	506287	93.31	63.3156
0	506833	93.41	63.3964
0	507379	93.51	63.4782
0	507925	93.61	63.5609
0	508471	93.71	63.6445
0	509017	93.81	63.729
0	509563	93.91	63.8141
0	510117	94.01	63.9
0	510663	94.11	63.9865
0	511209	94.21	64.0735
0	511755	94.31	64.161
0	512301	94.41	64.2489
0	512847	94.51	64.3372
0	513393	94.61	64.4258
0	513939	94.71	64.5146
0	514485	94.81	64.6037
0	515031	94.91	64.6929
0	515585	95.01	64.7823
0	516131	95.11	64.8717
0	516677	95.21	64.9613
0	517223	95.31	65.0509
0	517769	95.41	65.1405
0	518315	95.51	65.2301
0	518861	95.61	65.3197
0	519407	95.71	65.4093
0	519953	95.81	65.4989
0	520499	95.91	65.5885
0	521053	96.01	65.678
0	521599	96.11	65.7674
0	522145	96.21	65.8568
0	522691	96.31	65.9462
0	523237	96.41	66.0355
0	523783	96.51	66.1248
0	524329	96.61	66.214
0	524875	96.71	66.3032
0	525421	96.81	66.3923
0	525967	96.91	66.4814
0	526521	97.01	66.5705
0	527067	97.11	66.6595
0	527613	97.21	66.7485
0	528159	97.31	66.8375
0	528705	97.41	66.9265
0	529251	97.51	67.0154
0	529797	97.61	67.1043
0	530343	97.71	67.1932
0	530889	97.81	67.2821
0	531435	97.91	67.371
0	531989	98.01	67.4599
0	532535	98.11	67.5488
0	533081	98.21	67.6376
0	533627	98.31	67.7265
0	534173	98.41	67.8154
0	534719	98.51	67.9042
0	535265	98.61	67.9931
0	535811	98.71	68.0819
0	536357	98.81	68.1708
0	536903	98.91	68.2597
0	537457	99.01	68.3485
0	538003	99.11	68.4374
0	538549	99.21	68.5262
0	539095	99.31	68.6151
0	539641	99.41	68.704
0	540187	99.51	68.7928
0	540733	99.61	68.8817
0	541279	99.71	68.9706
0	541825	99.81	69.0595
0	542371	99.91	69.1483
1	113	1.11	0
1	659	1.21	0
1	1205	1.31	0
1	1751	1.41	0
1	2297	1.51	0
1	2843	1.61	0
1	3389	1.71	0
1	3935	1.81	0
1	4481	1.91	0
1	5035	2.01	0
1	5581	2.11	0
1	6127	2.21	0
1	6673	2.31	0
1	7219	2.41	0
1	7765	2.51	0
1	8311	2.61	0
1	8857	2.71	0
1	9403	2.81	0
1	9949	2.91	0
1	10503	3.01	0
1	11049	3.11	0
1	11595	3.21	0
1	12141	3.31	0
1	12687	3.41	0
1	13233	3.51	0
1	13779	3.61	0
1	14325	3.71	0
1	14871	3.81	0
1	15417	3.91	0
1	15971	4.01	0
1	16517	4.11	0
1	17063	4.21	0
1	17609	4.31	0
1	18155	4.41	0
1	18701	4.51	0
1	19247	4.61	0
1	19793	4.71	0
1	20339	4.81	0
1	20885	4.91	0
1	21439	5.01	0
1	21985	5.11	0
1	22531	5.21	0
1	23077	5.31	0
1	23623	5.41	0
1	24169	5.51	0
1	24715	5.61	0
1	25261	5.71	0
1	25807	5.81	0
1	26353	5.91	0
1	26907	6.01	0
1	27453	6.11	0
1	27999	6.21	0
1	28545	6.31	0
1	29091	6.41	0
1	29637	6.51	0
1	30183	6.61	0
1	30729	6.71	0
1	31275	6.81	0
1	31821	6.91	0
1	32375	7.01	0
1	32921	7.11	0
1	33467	7.21	0
1	34013	7.31	0
1	34559	7.41	0
1	35105	7.51	0
1	35651	7.61	0
1	36197	7.71	0
1	36743	7.81	0
1	37289	7.91	0
1	37843	8.01	0
1	38389	8.11	0
1	38935	8.21	0
1	39481	8.31	0
1	40027	8.41	0
1	40573	8.51	0
1	41119	8.61	0
1	41665	8.71	0
1	42211	8.81	0
1	42757	8.91	0
1	43311	9.01	0
1	43857	9.11	0
1	44403	9.21	0
1	44949	9.31	0
1	45495	9.41	0
1	46041	9.51	0
1	46587	9.61	0
1	47133	9.71	0
1	47679	9.81	0
1	48225	9.91	0
1	50805	10.01	0
1	51351	10.11	0
1	51897	10.21	0
1	52443	10.31	0
1	52989	10.41	0
1	53535	10.51	0
1	54081	10.61	0
1	54627	10.71	0
1	55173	10.81	0
1	55719	10.91	0
1	56273	11.01	0
1	56819	11.11	0
1	57365	11.21	0
1	57911	11.31	0
1	58457	11.41	0
1	59003	11.51	0
1	59549	11.61	0
1	60095	11.71	0
1	60641	11.81	0
1	61187	11.91	0
1	61741	12.01	0
1	62287	12.11	0
1	62833	12.21	0
1	63379	12.31	0
1	63925	12.41	0
1	64471	12.51	0
1	65017	12.61	0
1	65563	12.71	0
1	66109	12.81	0
1	66655	12.91	0
1	67209	13.01	0
1	67755	13.11	0
1	68301	13.21	0
1	68847	13.31	0
1	69393	13.41	0
1	69939	13.51	0
1	70485	13.61	0
1	71031	13.71	0
1	71577	13.81	0
1	72123	13.91	0
1	72677	14.01	0
1	73223	14.11	0
1	73769	14.21	0
1	74315	14.31	0
1	74861	14.41	0
1	75407	14.51	0
1	75953	14.61	0
1	76499	14.71	0
1	77045	14.81	0
1	77591	14.91	0
1	78145	15.01	0
1	78691	15.11	0
1	79237	15.21	0
1	79783	15.31	0
1	80329	15.41	0
1	80875	15.51	0
1	81421	15.61	0
1	81967	15.71	0
1	82513	15.81	0
1	83059	15.91	0
1	83613	16.01	0
1	84159	16.11	0
1	84705	16.21	0
1	85251	16.31	0
1	85797	16.41	0
1	86343	16.51	0
1	86889	16.61	0
1	87435	16.71	0
1	87981	16.81	0
1	88527	16.91	0
1	89081	17.01	0
1	89627	17.11	0
1	90173	17.21	0
1	90719	17.31	0
1	91265	17.41	0
1	91811	17.51	0
1	92357	17.61	0
1	92903	17.71	0
1	93449	17.81	0
1	93995	17.91	0
1	94549	18.01	0
1	95095	18.11	0
1	95641	18.21	0
1	96187	18.31	0
1	96733	18.41	0
1	97279	18.51	0
1	97825	18.61	0
1	98371	18.71	0
1	98917	18.81	0
1	99463	18.91	0
1	100017	19.01	0
1	100563	19.11	0
1	101109	19.21	0
1	101655	19.31	0
1	102201	19.41	0
1	102747	19.51	0
1	103293	19.61	0
1	103839	19.71	0
1	104385	19.81	0
1	104931	19.91	0
1	105485	20.01	0
1	106031	20.11	0
1	106577	20.21	0
1	107123	20.31	0
1	107669	20.41	0
1	108215	20.51	0
1	108761	20.61	0
1	109307	20.71	0
1	109853	20.81	0
1	110399	20.91	0
1	110953	21.01	0
1	111499	21.11	0
1	112045	21.21	0
1	112591	21.31	0
1	113137	21.41	0
1	113683	21.51	0
1	114229	21.61	0
1	114775	21.71	0
1	115321	21.81	0
1	115867	21.91	0
1	116421	22.01	0
1	116967	22.11	0
1	117513	22.21	0
1	118059	22.31	0
1	118605	22.41	0
1	119151	22.51	0
1	119697	22.61	0
1	120243	22.71	0
1	120789	22.81	0
1	121335	22.91	0
1	121889	23.01	0
1	122435	23.11	0
1	122981	23.21	0
1	123527	23.31	0
1	124073	23.41	0
1	124619	23.51	0
1	125165	23.61	0
1	125711	23.71	0
1	126257	23.81	0
1	126803	23.91	0
1	127357	24.01	0
1	127903	24.11	0
1	128449	24.21	0
1	128995	24.31	0
1	129541	24.41	0
1	130087	24.51	0
1	130633	24.61	0
1	131179	24.71	0
1	131725	24.81	0
1	132271	24.91	0
1	132825	25.01	0
1	133371	25.11	0
1	133917	25.21	0
1	134463	25.31	0
1	135009	25.41	0
1	135555	25.51	0
1	136101	25.61	0
1	136647	25.71	0
1	137193	25.81	0
1	137739	25.91	0
1	138293	26.01	0
1	138839	26.11	0
1	139385	26.21	0
1	139931	26.31	0
1	140477	26.41	0
1	141023	26.51	0
1	141569	26.61	0
1	142115	26.71	0
1	142661	26.81	0
1	143207	26.91	0
1	143761	27.01	0
1	144307	27.11	0
1	144853	27.21	0
1	145399	27.31	0
1	145945	27.41	0
1	146491	27.51	0
1	147037	27.61	0
1	147583	27.71	0
1	148129	27.81	0
1	148675	27.91	0
1	149229	28.01	0
1	149775	28.11	0
1	150321	28.21	0
1	150867	28.31	0
1	151413	28.41	0
1	151959	28.51	0
1	152505	28.61	0
1	153051	28.71	0
1	153597	28.81	0
1	154143	28.91	0
1	154697	29.01	0
1	155243	29.11	0
1	155789	29.21	0
1	156335	29.31	0
1	156881	29.41	0
1	157427	29.51	0
1	157973	29.61	0
1	158519	29.71	0
1	159065	29.81	0
1	159611	29.91	0
1	160165	30.01	0
1	160711	30.11	0
1	161257	30.21	0
1	161803	30.31	0
1	162349	30.41	0
1	162895	30.51	0
1	163441	30.61	0
1	163987	30.71	0
1	164533	30.81	0
1	165079	30.91	0
1	165633	31.01	0
1	166179	31.11	0
1	166725	31.21	0
1	167271	31.31	0
1	167817	31.41	0
1	168363	31.51	0
1	168909	31.61	0
1	169455	31.71	0
1	170001	31.81	0
1	170547	31.91	0
1	171101	32.01	0
1	171647	32.11	0
1	172193	32.21	0
1	172739	32.31	0
1	173285	32.41	0
1	173831	32.51	0
1	174377	32.61	0
1	174923	32.71	0
1	175469	32.81	0
1	176015	32.91	0
1	176569	33.01	0
1	177115	33.11	0
1	177661	33.21	0
1	178207	33.31	0
1	178753	33.41	0
1	179299	33.51	0
1	179845	33.61	0
1	180391	33.71	0
1	180937	33.81	0
1	181483	33.91	0
1	182037	34.01	0
1	182583	34.11	0
1	183129	34.21	0
1	183675	34.31	0
1	184221	34.41	0
1	184767	34.51	0
1	185313	34.61	0
1	185859	34.71	0
1	186405	34.81	0
1	186951	34.91	0
1	187505	35.01	0
1	188051	35.11	0
1	188597	35.21	0
1	189143	35.31	0
1	189689	35.41	0
1	190235	35.51	0
1	190781	35.61	0
1	191327	35.71	0
1	191873	35.81	0
1	192419	35.91	0
1	192973	36.01	0
1	193519	36.11	0
1	194065	36.21	0
1	194611	36.31	0
1	195157	36.41	0
1	195703	36.51	0
1	196249	36.61	0
1	196795	36.71	0
1	197341	36.81	0
1	197887	36.91	0
1	198441	37.01	0
1	198987	37.11	0
1	199533	37.21	0
1	200079	37.31	0
1	200625	37.41	0
1	201171	37.51	0
1	201717	37.61	0
1	202263	37.71	0
1	202809	37.81	0
1	203355	37.91	0
1	203909	38.01	0
1	204455	38.11	0
1	205001	38.21	0
1	205547	38.31	0
1	206093	38.41	0
1	206639	38.51	0
1	207185	38.61	0
1	207731	38.71	0
1	208277	38.81	0
1	208823	38.91	0
1	209377	39.01	0
1	209923	39.11	0
1	210469	39.21	0
1	211015	39.31	0
1	211561	39.41	0
1	212107	39.51	0
1	212653	39.61	0
1	213199	39.71	0
1	213745	39.81	0
1	214291	39.91	0
1	214845	40.01	0
1	215391	40.11	0
1	215937	40.21	0
1	216483	40.31	0
1	217029	40.41	0
1	217575	40.51	0
1	218121	40.61	0
1	218667	40.71	0
1	219213	40.81	0
1	219759	40.91	0
1	220313	41.01	0
1	220859	41.11	0
1	221405	41.21	0
1	221951	41.31	0
1	222497	41.41	0
1	223043	41.51	0
1	223589	41.61	0
1	224135	41.71	0
1	224681	41.81	0
1	225227	41.91	0
1	225781	42.01	0
1	226327	42.11	0
1	226873	42.21	0
1	227419	42.31	0
1	227965	42.41	0
1	228511	42.51	0
1	229057	42.61	0
1	229603	42.71	0
1	230149	42.81	0
1	230695	42.91	0
1	231249	43.01	0
1	231795	43.11	0
1	232341	43.21	0
1	232887	43.31	0
1	233433	43.41	0
1	233979	43.51	0
1	234525	43.61	0
1	235071	43.71	0
1	235617	43.81	0
1	236163	43.91	0
1	236717	44.01	0
1	237263	44.11	0
1	237809	44.21	0
1	238355	44.31	0
1	238901	44.41	0
1	239447	44.51	0
1	239993	44.61	0
1	240539	44.71	0
1	241085	44.81	0
1	241631	44.91	0
1	242185	45.01	0
1	242731	45.11	0
1	243277	45.21	0
1	243823	45.31	0
1	244369	45.41	0
1	244915	45.51	0
1	245461	45.61	0
1	246007	45.71	0
1	246553	45.81	0
1	247099	45.91	0
1	247653	46.01	0
1	248199	46.11	0
1	248745	46.21	0
1	249291	46.31	0
1	249837	46.41	0
1	250383	46.51	0
1	250929	46.61	0
1	251475	46.71	0
1	252021	46.81	0
1	252567	46.91	0
1	253121	47.01	0
1	253667	47.11	0
1	254213	47.21	0
1	254759	47.31	0
1	255305	47.41	0
1	255851	47.51	0
1	256397	47.61	0
1	256943	47.71	0
1	257489	47.81	0
1	258035	47.91	0
1	258589	48.01	0
1	259135	48.11	0
1	259681	48.21	0
1	260227	48.31	0
1	260773	48.41	0
1	261319	48.51	0
1	261865	48.61	0
1	262411	48.71	0
1	262957	48.81	0
1	263503	48.91	0
1	264057	49.01	0
1	264603	49.11	0
1	265149	49.21	0
1	265695	49.31	0
1	266241	49.41	0
1	266787	49.51	0
1	267333	49.61	0
1	267879	49.71	0
1	268425	49.81	0
1	268971	49.91	0
1	269525	50.01	0
1	270071	50.11	0
1	270617	50.21	0
1	271163	50.31	0
1	271709	50.41	0
1	272255	50.51	0
1	272801	50.61	0
1	273347	50.71	0
1	273893	50.81	0
1	274439	50.91	0
1	274993	51.01	0
1	275539	51.11	0
1	276085	51.21	0
1	276631	51.31	0
1	277177	51.41	0
1	277723	51.51	0
1	278269	51.61	0
1	278815	51.71	0
1	279361	51.81	0
1	279907	51.91	0
1	280461	52.01	0
1	281007	52.11	0
1	281553	52.21	0
1	282099	52.31	0
1	282645	52.41	0
1	283191	52.51	0
1	283737	52.61	0
1	284283	52.71	0
1	284829	52.81	0
1	285375	52.91	0
1	285929	53.01	0
1	286475	53.11	0
1	287021	53.21	0
1	287567	53.31	0
1	288113	53.41	0
1	288659	53.51	0
1	289205	53.61	0
1	289751	53.71	0
1	290297	53.81	0
1	290843	53.91	0
1	291397	54.01	0
1	291943	54.11	0
1	292489	54.21	0
1	293035	54.31	0
1	293581	54.41	0
1	294127	54.51	0
1	294673	54.61	0
1	295219	54.71	0
1	295765	54.81	0
1	296311	54.91	0
1	296865	55.01	0
1	297411	55.11	0
1	297957	55.21	0
1	298503	55.31	0
1	299049	55.41	0
1	299595	55.51	0
1	300141	55.61	0
1	300687	55.71	0
1	301233	55.81	0
1	301779	55.91	0
1	302333	56.01	0
1	302879	56.11	0
1	303425	56.21	0
1	303971	56.31	0
1	304517	56.41	0
1	305063	56.51	0
1	305609	56.61	0
1	306155	56.71	0
1	306701	56.81	0
1	307247	56.91	0
1	307801	57.01	0
1	308347	57.11	0
1	308893	57.21	0
1	309439	57.31	0
1	309985	57.41	0
1	310531	57.51	0
1	311077	57.61	0
1	311623	57.71	0
1	312169	57.81	0
1	312715	57.91	0
1	313269	58.01	0
1	313815	58.11	0
1	314361	58.21	0
1	314907	58.31	0
1	315453	58.41	0
1	315999	58.51	0
1	316545	58.61	0
1	317091	58.71	0
1	317637	58.81	0
1	318183	58.91	0.88953
1	318737	59.01	0.89504
1	319283	59.11	0.905161
1	319829	59.21	0.918761
1	320375	59.31	0.934851
1	320921	59.41	0.952577
1	321467	59.51	0.971205
1	322013	59.61	0.990118
1	322559	59.71	1.0088
1	323105	59.81	1.02684
1	323651	59.91	1.04388
1	324205	60.01	1.05968
1	324751	60.11	1.07403
1	325297	60.21	1.08679
1	325843	60.31	1.09787
1	326389	60.41	1.10723
1	326935	60.51	1.11485
1	327481	60.61	1.12076
1	328027	60.71	1.12499
1	328573	60.81	1.1276
1	329119	60.91	1.12868
1	329673	61.01	1.12832
1	330219	61.11	1.1266
1	330765	61.21	1.12364
1	331311	61.31	1.11954
1	331857	61.41	1.1144
1	332403	61.51	1.10833
1	332949	61.61	1.10144
1	333495	61.71	1.09381
1	334041	61.81	1.08555
1	334587	61.91	1.07675
1	335141	62.01	1.06749
1	335687	62.11	1.05784
1	336233	62.21	1.04788
1	336779	62.31	1.03767
1	337325	62.41	1.02728
1	337871	62.51	1.01676
1	338417	62.61	1.00614
1	338963	62.71	0.995484
1	339509	62.81	0.984852
1	340055	62.91	0.974409
1	340609	63.01	0.964308
1	341155	63.11	0.954669
1	341701	63.21	0.945582
1	342247	63.31	0.937111
1	342793	63.41	0.929298
1	343339	63.51	0.922163
1	343885	63.61	0.915713
1	344431	63.71	0.909942
1	344977	63.81	0.90483
1	345523	63.91	0.90035
1	346077	64.01	0.89647
1	346623	64.11	0.893151
1	347169	64.21	0.890352
1	347715	64.31	0.88803
1	348261	64.41	0.886141
1	348807	64.51	0.88464
1	349353	64.61	0.883486
1	349899	64.71	0.882636
1	350445	64.81	0.882051
1	350991	64.91	0.881694
1	351545	65.01	0.881531
1	352091	65.11	0.881528
1	352637	65.21	0.881659
1	353183	65.31	0.881896
1	353729	65.41	0.882216
1	354275	65.51	0.882598
1	354821	65.61	0.883025
1	355367	65.71	0.883481
1	355913	65.81	0.883951
1	356459	65.91	0.884426
1	357013	66.01	0.884896
1	357559	66.11	0.885354
1	358105	66.21	0.885792
1	358651	66.31	0.886208
1	359197	66.41	0.886597
1	359743	66.51	0.886958
1	360289	66.61	0.887289
1	360835	66.71	0.887589
1	361381	66.81	0.887859
1	361927	66.91	0.888099
1	362481	67.01	0.88831
1	363027	67.11	0.888494
1	363573	67.21	0.888652
1	364119	67.31	0.888786
1	364665	67.41	0.888898
1	365211	67.51	0.88899
1	365757	67.61	0.889064
1	366303	67.71	0.889122
1	366849	67.81	0.889165
1	367395	67.91	0.889196
1	367949	68.01	0.889216
1	368495	68.11	0.889226
1	369041	68.21	0.889229
1	369587	68.31	0.889226
1	370133	68.41	0.889217
1	370679	68.51	0.889204
1	371225	68.61	0.889188
1	371771	68.71	0.88917
1	372317	68.81	0.88915
1	372863	68.91	0.889129
1	373417	69.01	0.889108
1	373963	69.11	0.889087
1	374509	69.21	0.889066
1	375055	69.31	0.889047
1	375601	69.41	0.889028
1	376147	69.51	0.88901
1	376693	69.61	0.888993
1	377239	69.71	0.888978
1	377785	69.81	0.888964
1	378331	69.91	0.888951
1	378885	70.01	0.88894
1	379431	70.11	0.88893
1	379977	70.21	0.888921
1	380523	70.31	0.888914
1	381069	70.41	0.888907
1	381615	70.51	0.888902
1	382161	70.61	0.888898
1	382707	70.71	0.888894
1	383253	70.81	0.888891
1	383799	70.91	0.888889
1	384353	71.01	0.888887
1	384899	71.11	0.888886
1	385445	71.21	0.888886
1	385991	71.31	0.888885
1	386537	71.41	0.888885
1	387083	71.51	0.888886
1	387629	71.61	0.888886
1	388175	71.71	0.888887
1	388721	71.81	0.888888
1	389267	71.91	0.888888
1	389821	72.01	0.888889
1	390367	72.11	0.88889
1	390913	72.21	0.888891
1	391459	72.31	0.888892
1	392005	72.41	0.888893
1	392551	72.51	0.888894
1	393097	72.61	0.888895
1	393643	72.71	0.888896
1	394189	72.81	0.888896
1	394735	72.91	0.888897
1	395289	73.01	0.888897
1	395835	73.11	0.888898
1	396381	73.21	0.888898
1	396927	73.31	0.888899
1	397473	73.41	0.888899
1	398019	73.51	0.8889
1	398565	73.61	0.8889
1	399111	73.71	0.8889
1	399657	73.81	0.8889
1	400203	73.91	0.8889
1	400757	74.01	0.8889
1	401303	74.11	0.888901
1	401849	74.21	0.888901
1	402395	74.31	0.888901
1	402941	74.41	0.888901
1	403487	74.51	0.888901
1	404033	74.61	0.888901
1	404579	74.71	0.888901
1	405125	74.81	0.888901
1	405671	74.91	0.888901
1	406225	75.01	0.888901
1	406771	75.11	0.8889
1	407317	75.21	0.8889
1	407863	75.31	0.8889
1	408409	75.41	0.8889
1	408955	75.51	0.8889
1	409501	75.61	0.8889
1	410047	75.71	0.8889
1	410593	75.81	0.8889
1	411139	75.91	0.8889
1	411693	76.01	0.8889
1	412239	76.11	0.8889
1	412785	76.21	0.8889
1	413331	76.31	0.8889
1	413877	76.41	0.8889
1	414423	76.51	0.8889
1	414969	76.61	0.8889
1	415515	76.71	0.8889
1	416061	76.81	0.8889
1	416607	76.91	0.8889
1	417161	77.01	0.8889
1	417707	77.11	0.8889
1	418253	77.21	0.8889
1	418799	77.31	0.8889
1	419345	77.41	0.8889
1	419891	77.51	0.8889
1	420437	77.61	0.8889
1	420983	77.71	0.8889
1	421529	77.81	0.8889
1	422075	77.91	0.8889
1	422629	78.01	0.8889
1	423175	78.11	0.8889
1	423721	78.21	0.8889
1	424267	78.31	0.8889
1	424813	78.41	0.8889
1	425359	78.51	0.8889
1	425905	78.61	0.8889
1	426451	78.71	0.8889
1	426997	78.81	0.8889
1	427543	78.91	0.8889
1	428097	79.01	0.8889
1	428643	79.11	0.8889
1	429189	79.21	0.8889
1	429735	79.31	0.8889
1	430281	79.41	0.8889
1	430827	79.51	0.8889
1	431373	79.61	0.8889
1	431919	79.71	0.8889
1	432465	79.81	0.8889
1	433011	79.91	0.8889
1	433565	80.01	0.8889
1	434111	80.11	0.8889
1	434657	80.21	0.8889
1	435203	80.31	0.8889
1	435749	80.41	0.8889
1	436295	80.51	0.8889
1	436841	80.61	0.8889
1	437387	80.71	0.8889
1	437933	80.81	0.8889
1	438479	80.91	0.8889
1	439033	81.01	0.8889
1	439579	81.11	0.8889
1	440125	81.21	0.8889
1	440671	81.31	0.8889
1	441217	81.41	0.8889
1	441763	81.51	0.8889
1	442309	81.61	0.8889
1	442855	81.71	0.8889
1	443401	81.81	0.8889
1	443947	81.91	0.8889
1	444501	82.01	0.8889
1	445047	82.11	0.8889
1	445593	82.21	0.8889
1	446139	82.31	0.8889
1	446685	82.41	0.8889
1	447231	82.51	0.8889
1	447777	82.61	0.8889
1	448323	82.71	0.8889
1	448869	82.81	0.8889
1	449415	82.91	0.8889
1	449969	83.01	0.8889
1	450515	83.11	0.8889
1	451061	83.21	0.8889
1	451607	83.31	0.8889
1	452153	83.41	0.8889
1	452699	83.51	0.8889
1	453245	83.61	0.8889
1	453791	83.71	0.8889
1	454337	83.81	0.8889
1	454883	83.91	0.8889
1	455437	84.01	0.8889
1	455983	84.11	0.8889
1	456529	84.21	0.8889
1	457075	84.31	0.8889
1	457621	84.41	0.8889
1	458167	84.51	0.8889
1	458713	84.61	0.8889
1	459259	84.71	0.8889
1	459805	84.81	0.8889
1	460351	84.91	0.8889
1	460905	85.01	0.8889
1	461451	85.11	0.8889
1	461997	85.21	0.8889
1	462543	85.31	0.8889
1	463089	85.41	0.8889
1	463635	85.51	0.8889
1	464181	85.61	0.8889
1	464727	85.71	0.8889
1	465273	85.81	0.8889
1	465819	85.91	0.8889
1	466373	86.01	0.8889
1	466919	86.11	0.8889
1	467465	86.21	0.8889
1	468011	86.31	0.8889
1	468557	86.41	0.8889
1	469103	86.51	0.8889
1	469649	86.61	0.8889
1	470195	86.71	0.8889
1	470741	86.81	0.8889
1	471287	86.91	0.8889
1	471841	87.01	0.8889
1	472387	87.11	0.8889
1	472933	87.21	0.8889
1	473479	87.31	0.8889
1	474025	87.41	0.8889
1	474571	87.51	0.8889
1	475117	87.61	0.8889
1	475663	87.71	0.8889
1	476209	87.81	0.8889
1	476755	87.91	0.8889
1	477309	88.01	0.8889
1	477855	88.11	0.8889
1	478401	88.21	0.8889
1	478947	88.31	0.8889
1	479493	88.41	0.8889
1	480039	88.51	0.8889
1	480585	88.61	0.8889
1	481131	88.71	0.8889
1	481677	88.81	0.8889
1	482223	88.91	0.8889
1	482777	89.01	0.8889
1	483323	89.11	0.8889
1	483869	89.21	0.8889
1	484415	89.31	0.8889
1	484961	89.41	0.8889
1	485507	89.51	0.8889
1	486053	89.61	0.8889
1	486599	89.71	0.8889
1	487145	89.81	0.888556
1	487691	89.91	0.884068
1	488245	90.01	0.875342
1	488791	90.11	0.863435
1	489337	90.21	0.849272
1	489883	90.31	0.833648
1	490429	90.41	0.817244
1	490975	90.51	0.800635
1	491521	90.61	0.784296
1	492067	90.71	0.768616
1	492613	90.81	0.753907
1	493159	90.91	0.740407
1	493713	91.01	0.728298
1	494259	91.11	0.717704
1	494805	91.21	0.708705
1	495351	91.31	0.70134
1	495897	91.41	0.695617
1	496443	91.51	0.691514
1	496989	91.61	0.688988
1	497535	91.71	0.687976
1	498081	91.81	0.688404
1	498627	91.91	0.690184
1	499181	92.01	0.693224
1	499727	92.11	0.697424
1	500273	92.21	0.702686
1	500819	92.31	0.708907
1	501365	92.41	0.715988
1	501911	92.51	0.723832
1	502457	92.61	0.732345
1	503003	92.71	0.741437
1	503549	92.81	0.751026
1	504095	92.91	0.761031
1	504649	93.01	0.77138
1	505195	93.11	0.78196
1	505741	93.21	0.792557
1	506287	93.31	0.802978
1	506833	93.41	0.813069
1	507379	93.51	0.822706
1	507925	93.61	0.831799
1	508471	93.71	0.840283
1	509017	93.81	0.848115
1	509563	93.91	0.855271
1	510117	94.01	0.861745
1	510663	94.11	0.867543
1	511209	94.21	0.872682
1	511755	94.31	0.877189
1	512301	94.41	0.881096
1	512847	94.51	0.884442
1	513393	94.61	0.887266
1	513939	94.71	0.889612
1	514485	94.81	0.891524
1	515031	94.91	0.893045
1	515585	95.01	0.894219
1	516131	95.11	0.895087
1	516677	95.21	0.895687
1	517223	95.31	0.896058
1	517769	95.41	0.896234
1	518315	95.51	0.896247
1	518861	95.61	0.896126
1	519407	95.71	0.895897
1	519953	95.81	0.895583
1	520499	95.91	0.895206
1	521053	96.01	0.894784
1	521599	96.11	0.894332
1	522145	96.21	0.893864
1	522691	96.31	0.89339
1	523237	96.41	0.892922
1	523783	96.51	0.892465
1	524329	96.61	0.892027
1	524875	96.71	0.891611
1	525421	96.81	0.891221
1	525967	96.91	0.89086
1	526521	97.01	0.890528
1	527067	97.11	0.890227
1	527613	97.21	0.889956
1	528159	97.31	0.889715
1	528705	97.41	0.889502
1	529251	97.51	0.889317
1	529797	97.61	0.889158
1	530343	97.71	0.889023
1	530889	97.81	0.888909
1	531435	97.91	0.888816
1	531989	98.01	0.888742
1	532535	98.11	0.888683
1	533081	98.21	0.888639
1	533627	98.31	0.888607
1	534173	98.41	0.888587
1	534719	98.51	0.888575
1	535265	98.61	0.888572
1	535811	98.71	0.888575
1	536357	98.81	0.888583
1	536903	98.91	0.888596
1	537457	99.01	0.888612
1	538003	99.11	0.88863
1	538549	99.21	0.888649
1	539095	99.31	0.88867
1	539641	99.41	0.888691
1	540187	99.51	0.888712
1	540733	99.61	0.888733
1	541279	99.71	0.888753
1	541825	99.81	0.888772
1	542371	99.91	0.888789
2	113	1.11	0
2	659	1.21	0
2	1205	1.31	0
2	1751	1.41	0
2	2297	1.51	0
2	2843	1.61	0
2	3389	1.71	0
2	3935	1.81	0
2	4481	1.91	0
2	5035	2.01	0
2	5581	2.11	0
2	6127	2.21	0
2	6673	2.31	0
2	7219	2.41	0
2	7765	2.51	0
2	8311	2.61	0
2	8857	2.71	0
2	9403	2.81	0
2	9949	2.91	0
2	10503	3.01	0
2	11049	3.11	0
2	11595	3.21	0
2	12141	3.31	0
2	12687	3.41	0
2	13233	3.51	0
2	13779	3.61	0
2	14325	3.71	0
2	14871	3.81	0
2	15417	3.91	0
2	15971	4.01	0
2	16517	4.11	0
2	17063	4.21	0
2	17609	4.31	0
2	18155	4.41	0
2	18701	4.51	0
2	19247	4.61	0
2	19793	4.71	0
2	20339	4.81	0
2	20885	4.91	0
2	21439	5.01	0
2	21985	5.11	0
2	22531	5.21	0
2	23077	5.31	0
2	23623	5.41	0
2	24169	5.51	0
2	24715	5.61	0
2	25261	5.71	0
2	25807	5.81	0
2	26353	5.91	0
2	26907	6.01	0
2	27453	6.11	0
2	27999	6.21	0
2	28545	6.31	0
2	29091	6.41	0
2	29637	6.51	0
2	30183	6.61	0
2	30729	6.71	0
2	31275	6.81	0
2	31821	6.91	0
2	32375	7.01	0
2	32921	7.11	0
2	33467	7.21	0
2	34013	7.31	0
2	34559	7.41	0
2	35105	7.51	0
2	35651	7.61	0
2	36197	7.71	0
2	36743	7.81	0
2	37289	7.91	0
2	37843	8.01	0
2	38389	8.11	0
2	38935	8.21	0
2	39481	8.31	0
2	40027	8.41	0
2	40573	8.51	0
2	41119	8.61	0
2	41665	8.71	0
2	42211	8.81	0
2	42757	8.91	0
2	43311	9.01	0
2	43857	9.11	0
2	44403	9.21	0
2	44949	9.31	0
2	45495	9.41	0
2	46041	9.51	0
2	46587	9.61	0
2	47133	9.71	0
2	47679	9.81	0
2	48225	9.91	0
2	50805	10.01	0
2	51351	10.11	0
2	51897	10.21	0
2	52443	10.31	0
2	52989	10.41	0
2	53535	10.51	0
2	54081	10.61	0
2	54627	10.71	0
2	55173	10.81	0
2	55719	10.91	0
2	56273	11.01	0
2	56819	11.11	0
2	57365	11.21	0
2	57911	11.31	0
2	58457	11.41	0
2	59003	11.51	0
2	59549	11.61	0
2	60095	11.71	0
2	60641	11.81	0
2	61187	11.91	0
2	61741	12.01	0
2	62287	12.11	0
2	62833	12.21	0
2	63379	12.31	0
2	63925	12.41	0
2	64471	12.51	0
2	65017	12.61	0
2	65563	12.71	0
2	66109	12.81	0
2	66655	12.91	0
2	67209	13.01	0
2	67755	13.11	0
2	68301	13.21	0
2	68847	13.31	0
2	69393	13.41	0
2	69939	13.51	0
2	70485	13.61	0
2	71031	13.71	0
2	71577	13.81	0
2	72123	13.91	0
2	72677	14.01	0
2	73223	14.11	0
2	73769	14.21	0
2	74315	14.31	0
2	74861	14.41	0
2	75407	14.51	0
2	75953	14.61	0
2	76499	14.71	0
2	77045	14.81	0
2	77591	14.91	0
2	78145	15.01	0
2	78691	15.11	0
2	79237	15.21	0
2	79783	15.31	0
2	80329	15.41	0
2	80875	15.51	0
2	81421	15.61	0
2	81967	15.71	0
2	82513	15.81	0
2	83059	15.91	0
2	83613	16.01	0
2	84159	16.11	0
2	84705	16.21	0
2	85251	16.31	0
2	85797	16.41	0
2	86343	16.51	0
2	86889	16.61	0
2	87435	16.71	0
2	87981	16.81	0
2	88527	16.91	0
2	89081	17.01	0
2	89627	17.11	0
2	90173	17.21	0
2	90719	17.31	0
2	91265	17.41	0
2	91811	17.51	0
2	92357	17.61	0
2	92903	17.71	0
2	93449	17.81	0
2	93995	17.91	0
2	94549	18.01	0
2	95095	18.11	0
2	95641	18.21	0
2	96187	18.31	0
2	96733	18.41	0
2	97279	18.51	0
2	97825	18.61	0
2	98371	18.71	0
2	98917	18.81	0
2	99463	18.91	0
2	100017	19.01	0
2	100563	19.11	0
2	101109	19.21	0
2	101655	19.31	0
2	102201	19.41	0
2	102747	19.51	0
2	103293	19.61	0
2	103839	19.71	0
2	104385	19.81	0
2	104931	19.91	0
2	105485	20.01	0
2	106031	20.11	0
2	106577	20.21	0
2	107123	20.31	0
2	107669	20.41	0
2	108215	20.51	0
2	108761	20.61	0
2	109307	20.71	0
2	109853	20.81	0
2	110399	20.91	0
2	110953	21.01	0
2	111499	21.11	0
2	112045	21.21	0
2	112591	21.31	0
2	113137	21.41	0
2	113683	21.51	0
2	114229	21.61	0
2	114775	21.71	0
2	115321	21.81	0
2	115867	21.91	0
2	116421	22.01	0
2	116967	22.11	0
2	117513	22.21	0
2	118059	22.31	0
2	118605	22.41	0
2	119151	22.51	0
2	119697	22.61	0
2	120243	22.71	0
2	120789	22.81	0
2	121335	22.91	0
2	121889	23.01	0
2	122435	23.11	0
2	122981	23.21	0
2	123527	23.31	0
2	124073	23.41	0
2	124619	23.51	0
2	125165	23.61	0
2	125711	23.71	0
2	126257	23.81	0
2	126803	23.91	0
2	127357	24.01	0
2	127903	24.11	0
2	128449	24.21	0
2	128995	24.31	0
2	129541	24.41	0
2	130087	24.51	0
2	130633	24.61	0
2	131179	24.71	0
2	131725	24.81	0
2	132271	24.91	0
2	132825	25.01	0
2	133371	25.11	0
2	133917	25.21	0
2	134463	25.31	0
2	135009	25.41	0
2	135555	25.51	0
2	136101	25.61	0
2	136647	25.71	0
2	137193	25.81	0
2	137739	25.91	0
2	138293	26.01	0
2	138839	26.11	0
2	139385	26.21	0
2	139931	26.31	0
2	140477	26.41	0
2	141023	26.51	0
2	141569	26.61	0
2	142115	26.71	0
2	142661	26.81	0
2	143207	26.91	0
2	143761	27.01	0
2	144307	27.11	0
2	144853	27.21	0
2	145399	27.31	0
2	145945	27.41	0
2	146491	27.51	0
2	147037	27.61	0
2	147583	27.71	0
2	148129	27.81	0
2	148675	27.91	0
2	149229	28.01	0
2	149775	28.11	0
2	150321	28.21	0
2	150867	28.31	0
2	151413	28.41	0
2	151959	28.51	0
2	152505	28.61	0
2	153051	28.71	0
2	153597	28.81	0
2	154143	28.91	0
2	154697	29.01	0
2	155243	29.11	0
2	155789	29.21	0
2	156335	29.31	0
2	156881	29.41	0
2	157427	29.51	0
2	157973	29.61	0
2	158519	29.71	0
2	159065	29.81	0
2	159611	29.91	0
2	160165	30.01	0
2	160711	30.11	0
2	161257	30.21	0
2	161803	30.31	0
2	162349	30.41	0
2	162895	30.51	0
2	163441	30.61	0
2	163987	30.71	0
2	164533	30.81	0
2	165079	30.91	0
2	165633	31.01	0
2	166179	31.11	0
2	166725	31.21	0
2	167271	31.31	0
2	167817	31.41	0
2	168363	31.51	0
2	168909	31.61	0
2	169455	31.71	0
2	170001	31.81	0
2	170547	31.91	0
2	171101	32.01	0
2	171647	32.11	0
2	172193	32.21	0
2	172739	32.31	0
2	173285	32.41	0
2	173831	32.51	0
2	174377	32.61	0
2	174923	32.71	0
2	175469	32.81	0
2	176015	32.91	0
2	176569	33.01	0
2	177115	33.11	0
2	177661	33.21	0
2	178207	33.31	0
2	178753	33.41	0
2	179299	33.51	0
2	179845	33.61	0
2	180391	33.71	0
2	180937	33.81	0
2	181483	33.91	0
2	182037	34.01	0
2	182583	34.11	0
2	183129	34.21	0
2	183675	34.31	0
2	184221	34.41	0
2	184767	34.51	0
2	185313	34.61	0
2	185859	34.71	0
2	186405	34.81	0
2	186951	34.91	0
2	187505	35.01	0
2	188051	35.11	0
2	188597	35.21	0
2	189143	35.31	0
2	189689	35.41	0
2	190235	35.51	0
2	190781	35.61	0
2	191327	35.71	0
2	191873	35.81	0
2	192419	35.91	0
2	192973	36.01	0
2	193519	36.11	0
2	194065	36.21	0
2	194611	36.31	0
2	195157	36.41	0
2	195703	36.51	0
2	196249	36.61	0
2	196795	36.71	0
2	197341	36.81	0
2	197887	36.91	0
2	198441	37.01	0
2	198987	37.11	0
2	199533	37.21	0
2	200079	37.31	0
2	200625	37.41	0
2	201171	37.51	0
2	201717	37.61	0
2	202263	37.71	0
2	202809	37.81	0
2	203355	37.91	0
2	203909	38.01	0
2	204455	38.11	0
2	205001	38.21	0
2	205547	38.31	0
2	206093	38.41	0
2	206639	38.51	0
2	207185	38.61	0
2	207731	38.71	0
2	208277	38.81	0
2	208823	38.91	0
2	209377	39.01	0
2	209923	39.11	0
2	210469	39.21	0
2	211015	39.31	0
2	211561	39.41	0
2	212107	39.51	0
2	212653	39.61	0
2	213199	39.71	0
2	213745	39.81	0
2	214291	39.91	0
2	214845	40.01	0
2	215391	40.11	0
2	215937	40.21	0
2	216483	40.31	0
2	217029	40.41	0
2	217575	40.51	0
2	218121	40.61	0
2	218667	40.71	0
2	219213	40.81	0
2	219759	40.91	0
2	220313	41.01	0
2	220859	41.11	0
2	221405	41.21	0
2	221951	41.31	0
2	222497	41.41	0
2	223043	41.51	0
2	223589	41.61	0
2	224135	41.71	0
2	224681	41.81	0
2	225227	41.91	0
2	225781	42.01	0
2	226327	42.11	0
2	226873	42.21	0
2	227419	42.31	0
2	227965	42.41	0
2	228511	42.51	0
2	229057	42.61	0
2	229603	42.71	0
2	230149	42.81	0
2	230695	42.91	0
2	231249	43.01	0
2	231795	43.11	0
2	232341	43.21	0
2	232887	43.31	0
2	233433	43.41	0
2	233979	43.51	0
2	234525	43.61	0
2	235071	43.71	0
2	235617	43.81	0
2	236163	43.91	0
2	236717	44.01	0
2	237263	44.11	0
2	237809	44.21	0
2	238355	44.31	0
2	238901	44.41	0
2	239447	44.51	0
2	239993	44.61	0
2	240539	44.71	0
2	241085	44.81	0
2	241631	44.91	0
2	242185	45.01	0
2	242731	45.11	0
2	243277	45.21	0
2	243823	45.31	0
2	244369	45.41	0
2	244915	45.51	0
2	245461	45.61	0
2	246007	45.71	0
2	246553	45.81	0
2	247099	45.91	0
2	247653	46.01	0
2	248199	46.11	0
2	248745	46.21	0
2	249291	46.31	0
2	249837	46.41	0
2	250383	46.51	0
2	250929	46.61	0
2	251475	46.71	0
2	252021	46.81	0
2	252567	46.91	0
2	253121	47.01	0
2	253667	47.11	0
2	254213	47.21	0
2	254759	47.31	0
2	255305	47.41	0
2	255851	47.51	0
2	256397	47.61	0
2	256943	47.71	0
2	257489	47.81	0
2	258035	47.91	0
2	258589	48.01	0
2	259135	48.11	0
2	259681	48.21	0
2	260227	48.31	0
2	260773	48.41	0
2	261319	48.51	0
2	261865	48.61	0
2	262411	48.71	0
2	262957	48.81	0
2	263503	48.91	0
2	264057	49.01	0
2	264603	49.11	0
2	265149	49.21	0
2	265695	49.31	0
2	266241	49.41	0
2	266787	49.51	0
2	267333	49.61	0
2	267879	49.71	0
2	268425	49.81	0
2	268971	49.91	0
2	269525	50.01	0
2	270071	50.11	0
2	270617	50.21	0
2	271163	50.31	0
2	271709	50.41	0
2	272255	50.51	0
2	272801	50.61	0
2	273347	50.71	0
2	273893	50.81	0
2	274439	50.91	0
2	274993	51.01	0
2	275539	51.11	0
2	276085	51.21	0
2	276631	51.31	0
2	277177	51.41	0
2	277723	51.51	0
2	278269	51.61	0
2	278815	51.71	0
2	279361	51.81	0
2	279907	51.91	0
2	280461	52.01	0
2	281007	52.11	0
2	281553	52.21	0
2	282099	52.31	0
2	282645	52.41	0
2	283191	52.51	0
2	283737	52.61	0
2	284283	52.71	0
2	284829	52.81	0
2	285375	52.91	0
2	285929	53.01	0
2	286475	53.11	0
2	287021	53.21	0
2	287567	53.31	0
2	288113	53.41	0
2	288659	53.51	0
2	289205	53.61	0
2	289751	53.71	0
2	290297	53.81	0
2	290843	53.91	0
2	291397	54.01	0
2	291943	54.11	0
2	292489	54.21	0
2	293035	54.31	0
2	293581	54.41	0
2	294127	54.51	0
2	294673	54.61	0
2	295219	54.71	0
2	295765	54.81	0
2	296311	54.91	0
2	296865	55.01	0
2	297411	55.11	0
2	297957	55.21	0
2	298503	55.31	0
2	299049	55.41	0
2	299595	55.51	0
2	300141	55.61	0
2	300687	55.71	0
2	301233	55.81	0
2	301779	55.91	0
2	302333	56.01	0
2	302879	56.11	0
2	303425	56.21	0
2	303971	56.31	0
2	304517	56.41	0
2	305063	56.51	0
2	305609	56.61	0
2	306155	56.71	0
2	306701	56.81	0
2	307247	56.91	0
2	307801	57.01	0
2	308347	57.11	0
2	308893	57.21	0
2	309439	57.31	0
2	309985	57.41	0
2	310531	57.51	0
2	311077	57.61	0
2	311623	57.71	0
2	312169	57.81	0
2	312715	57.91	0
2	313269	58.01	0
2	313815	58.11	0
2	314361	58.21	0
2	314907	58.31	0
2	315453	58.41	0
2	315999	58.51	0
2	316545	58.61	0
2	317091	58.71	0
2	317637	58.81	0
2	318183	58.91	0
2	318737	59.01	0
2	319283	59.11	0
2	319829	59.21	0
2	320375	59.31	0
2	320921	59.41	0
2	321467	59.51	0
2	322013	59.61	0
2	322559	59.71	0
2	323105	59.81	0
2	323651	59.91	0
2	324205	60.01	0
2	324751	60.11	0
2	325297	60.21	0
2	325843	60.31	0
2	326389	60.41	0
2	326935	60.51	0
2	327481	60.61	0
2	328027	60.71	0
2	328573	60.81	0
2	329119	60.91	0
2	329673	61.01	0
2	330219	61.11	0
2	330765	61.21	0
2	331311	61.31	0
2	331857	61.41	0
2	332403	61.51	0
2	332949	61.61	0
2	333495	61.71	0
2	334041	61.81	0
2	334587	61.91	0
2	335141	62.01	0
2	335687	62.11	0
2	336233	62.21	0
2	336779	62.31	0
2	337325	62.41	0
2	337871	62.51	0
2	338417	62.61	0
2	338963	62.71	0
2	339509	62.81	0
2	340055	62.91	0
2	340609	63.01	0
2	341155	63.11	0
2	341701	63.21	0
2	342247	63.31	0
2	342793	63.41	0
2	343339	63.51	0
2	343885	63.61	0
2	344431	63.71	0
2	344977	63.81	0
2	345523	63.91	0
2	346077	64.01	0
2	346623	64.11	0
2	347169	64.21	0
2	347715	64.31	0
2	348261	64.41	0
2	348807	64.51	0
2	349353	64.61	0
2	349899	64.71	0
2	350445	64.81	0
2	350991	64.91	0
2	351545	65.01	0
2	352091	65.11	0
2	352637	65.21	0
2	353183	65.31	0
2	353729	65.41	0
2	354275	65.51	0
2	354821	65.61	0
2	355367	65.71	0
2	355913	65.81	0
2	356459	65.91	0
2	357013	66.01	0
2	357559	66.11	0
2	358105	66.21	0
2	358651	66.31	0
2	359197	66.41	0
2	359743	66.51	0
2	360289	66.61	0
2	360835	66.71	0
2	361381	66.81	0
2	361927	66.91	0
2	362481	67.01	0
2	363027	67.11	0
2	363573	67.21	0
2	364119	67.31	0
2	364665	67.41	0
2	365211	67.51	0
2	365757	67.61	0
2	366303	67.71	0
2	366849	67.81	0
2	367395	67.91	0
2	367949	68.01	0
2	368495	68.11	0
2	369041	68.21	0
2	369587	68.31	0
2	370133	68.41	0
2	370679	68.51	0
2	371225	68.61	0
2	371771	68.71	0
2	372317	68.81	0
2	372863	68.91	0
2	373417	69.01	0
2	373963	69.11	0
2	374509	69.21	0
2	375055	69.31	0
2	375601	69.41	0
2	376147	69.51	0
2	376693	69.61	0
2	377239	69.71	0
2	377785	69.81	0
2	378331	69.91	0
2	378885	70.01	0
2	379431	70.11	0
2	379977	70.21	0
2	380523	70.31	0
2	381069	70.41	0
2	381615	70.51	0
2	382161	70.61	0
2	382707	70.71	0
2	383253	70.81	0
2	383799	70.91	0
2	384353	71.01	0
2	384899	71.11	0
2	385445	71.21	0
2	385991	71.31	0
2	386537	71.41	0
2	387083	71.51	0
2	387629	71.61	0
2	388175	71.71	0
2	388721	71.81	0
2	389267	71.91	0
2	389821	72.01	0
2	390367	72.11	0
2	390913	72.21	0
2	391459	72.31	0
2	392005	72.41	0
2	392551	72.51	0
2	393097	72.61	0
2	393643	72.71	0
2	394189	72.81	0
2	394735	72.91	0
2	395289	73.01	0
2	395835	73.11	0
2	396381	73.21	0
2	396927	73.31	0
2	397473	73.41	0
2	398019	73.51	0
2	398565	73.61	0
2	399111	73.71	0
2	399657	73.81	0
2	400203	73.91	0
2	400757	74.01	0
2	401303	74.11	0
2	401849	74.21	0
2	402395	74.31	0
2	402941	74.41	0
2	403487	74.51	0
2	404033	74.61	0
2	404579	74.71	0
2	405125	74.81	0
2	405671	74.91	0
2	406225	75.01	0
2	406771	75.11	0
2	407317	75.21	0
2	407863	75.31	0
2	408409	75.41	0
2	408955	75.51	0
2	409501	75.61	0
2	410047	75.71	0
2	410593	75.81	0
2	411139	75.91	0
2	411693	76.01	0
2	412239	76.11	0
2	412785	76.21	0
2	413331	76.31	0
2	413877	76.41	0
2	414423	76.51	0
2	414969	76.61	0
2	415515	76.71	0
2	416061	76.81	0
2	416607	76.91	0
2	417161	77.01	0
2	417707	77.11	0
2	418253	77.21	0
2	418799	77.31	0
2	419345	77.41	0
2	419891	77.51	0
2	420437	77.61	0
2	420983	77.71	0
2	421529	77.81	0
2	422075	77.91	0
2	422629	78.01	0
2	423175	78.11	0
2	423721	78.21	0
2	424267	78.31	0
2	424813	78.41	0
2	425359	78.51	0
2	425905	78.61	0
2	426451	78.71	0
2	426997	78.81	0
2	427543	78.91	0
2	428097	79.01	0
2	428643	79.11	0
2	429189	79.21	0
2	429735	79.31	0
2	430281	79.41	0
2	430827	79.51	0
2	431373	79.61	0
2	431919	79.71	0
2	432465	79.81	0
2	433011	79.91	0
2	433565	80.01	0
2	434111	80.11	0
2	434657	80.21	0
2	435203	80.31	0
2	435749	80.41	0
2	436295	80.51	0
2	436841	80.61	0
2	437387	80.71	0
2	437933	80.81	0
2	438479	80.91	0
2	439033	81.01	0
2	439579	81.11	0
2	440125	81.21	0
2	440671	81.31	0
2	441217	81.41	0
2	441763	81.51	0
2	442309	81.61	0
2	442855	81.71	0
2	443401	81.81	0
2	443947	81.91	0
2	444501	82.01	0
2	445047	82.11	0
2	445593	82.21	0
2	446139	82.31	0
2	446685	82.41	0
2	447231	82.51	0
2	447777	82.61	0
2	448323	82.71	0
2	448869	82.81	0
2	449415	82.91	0
2	449969	83.01	0
2	450515	83.11	0
2	451061	83.21	0
2	451607	83.31	0
2	452153	83.41	0
2	452699	83.51	0
2	453245	83.61	0
2	453791	83.71	0
2	454337	83.81	0
2	454883	83.91	0
2	455437	84.01	0
2	455983	84.11	0
2	456529	84.21	0
2	457075	84.31	0
2	457621	84.41	0
2	458167	84.51	0
2	458713	84.61	0
2	459259	84.71	0
2	459805	84.81	0
2	460351	84.91	0
2	460905	85.01	0
2	461451	85.11	0
2	461997	85.21	0
2	462543	85.31	0
2	463089	85.41	0
2	463635	85.51	0
2	464181	85.61	0
2	464727	85.71	0
2	465273	85.81	0
2	465819	85.91	0
2	466373	86.01	0
2	466919	86.11	0
2	467465	86.21	0
2	468011	86.31	0
2	468557	86.41	0
2	469103	86.51	0
2	469649	86.61	0
2	470195	86.71	0
2	470741	86.81	0
2	471287	86.91	0
2	471841	87.01	0
2	472387	87.11	0
2	472933	87.21	0
2	473479	87.31	0
2	474025	87.41	0
2	474571	87.51	0
2	475117	87.61	0
2	475663	87.71	0
2	476209	87.81	0
2	476755	87.91	0
2	477309	88.01	0
2	477855	88.11	0
2	478401	88.21	0
2	478947	88.31	0
2	479493	88.41	0
2	480039	88.51	0
2	480585	88.61	0
2	481131	88.71	0
2	481677	88.81	0
2	482223	88.91	0
2	482777	89.01	0
2	483323	89.11	0
2	483869	89.21	0
2	484415	89.31	0
2	484961	89.41	0
2	485507	89.51	0
2	486053	89.61	0
2	486599	89.71	0
2	487145	89.81	0
2	487691	89.91	0
2	488245	90.01	0
2	488791	90.11	0
2	489337	90.21	0
2	489883	90.31	0
2	490429	90.41	0
2	490975	90.51	0
2	491521	90.61	0
2	492067	90.71	0
2	492613	90.81	0
2	493159	90.91	0
2	493713	91.01	0
2	494259	91.11	0
2	494805	91.21	0
2	495351	91.31	0
2	495897	91.41	0
2	496443	91.51	0
2	496989	91.61	0
2	497535	91.71	0
2	498081	91.81	0
2	498627	91.91	0
2	499181	92.01	0
2	499727	92.11	0
2	500273	92.21	0
2	500819	92.31	0
2	501365	92.41	0
2	501911	92.51	0
2	502457	92.61	0
2	503003	92.71	0
2	503549	92.81	0
2	504095	92.91	0
2	504649	93.01	0
2	505195	93.11	0
2	505741	93.21	0
2	506287	93.31	0
2	506833	93.41	0
2	507379	93.51	0
2	507925	93.61	0
2	508471	93.71	0
2	509017	93.81	0
2	509563	93.91	0
2	510117	94.01	0
2	510663	94.11	0
2	511209	94.21	0
2	511755	94.31	0
2	512301	94.41	0
2	512847	94.51	0
2	513393	94.61	0
2	513939	94.71	0
2	514485	94.81	0
2	515031	94.91	0
2	515585	95.01	0
2	516131	95.11	0
2	516677	95.21	0
2	517223	95.31	0
2	517769	95.41	0
2	518315	95.51	0
2	518861	95.61	0
2	519407	95.71	0
2	519953	95.81	0
2	520499	95.91	0
2	521053	96.01	0
2	521599	96.11	0
2	522145	96.21	0
2	522691	96.31	0
2	523237	96.41	0
2	523783	96.51	0
2	524329	96.61	0
2	524875	96.71	0
2	525421	96.81	0
2	525967	96.91	0
2	526521	97.01	0
2	527067	97.11	0
2	527613	97.21	0
2	528159	97.31	0
2	528705	97.41	0
2	529251	97.51	0
2	529797	97.61	0
2	530343	97.71	0
2	530889	97.81	0
2	531435	97.91	0
2	531989	98.01	0
2	532535	98.11	0
2	533081	98.21	0
2	533627	98.31	0
2	534173	98.41	0
2	534719	98.51	0
2	535265	98.61	0
2	535811	98.71	0
2	536357	98.81	0
2	536903	98.91	0
2	537457	99.01	0
2	538003	99.11	0
2	538549	99.21	0
2	539095	99.31	0
2	539641	99.41	0
2	540187	99.51	0
2	540733	99.61	0
2	541279	99.71	0
2	541825	99.81	0
2	542371	99.91	0
3	113	1.11	0.000179096
3	659	1.21	0.000340852
3	1205	1.31	0.000467435
3	1751	1.41	0.000562893
3	2297	1.51	0.000631106
3	2843	1.61	0.000675745
3	3389	1.71	0.000700245
3	3935	1.81	0.000707784
3	4481	1.91	0.000701273
3	5035	2.01	0.000683354
3	5581	2.11	0.000656398
3	6127	2.21	0.000622512
3	6673	2.31	0.000583548
3	7219	2.41	0.000541117
3	7765	2.51	0.000496604
3	8311	2.61	0.000451181
3	8857	2.71	0.000405825
3	9403	2.81	0.00036134
3	9949	2.91	0.000318365
3	10503	3.01	0.0002774
3	11049	3.11	0.00023882
3	11595	3.21	0.000202887
3	12141	3.31	0.00016977
3	12687	3.41	0.000139558
3	13233	3.51	0.000112271
3	13779	3.61	8.78717e-05
3	14325	3.71	6.628e-05
3	14871	3.81	4.73785e-05
3	15417	3.91	3.1023e-05
3	15971	4.01	1.70493e-05
3	16517	4.11	5.28023e-06
3	17063	4.21	-4.46922e-06
3	17609	4.31	-1.2387e-05
3	18155	4.41	-1.86602e-05
3	18701	4.51	-2.34717e-05
3	19247	4.61	-2.69978e-05
3	19793	4.71	-2.94062e-05
3	20339	4.81	-3.08545e-05
3	20885	4.91	-3.14892e-05
3	21439	5.01	-3.14451e-05
3	21985	5.11	-3.0845e-05
3	22531	5.21	-2.97994e-05
3	23077	5.31	-2.84072e-05
3	23623	5.41	-2.67556e-05
3	24169	5.51	-2.49208e-05
3	24715	5.61	-2.29687e-05
3	25261	5.71	-2.09553e-05
3	25807	5.81	-1.89277e-05
3	26353	5.91	-1.6925e-05
3	26907	6.01	-1.49784e-05
3	27453	6.11	-1.31129e-05
3	27999	6.21	-1.13474e-05
3	28545	6.31	-9.69553e-06
3	29091	6.41	-8.16651e-06
3	29637	6.51	-6.76571e-06
3	30183	6.61	-5.49522e-06
3	30729	6.71	-4.35441e-06
3	31275	6.81	-3.34045e-06
3	31821	6.91	-2.44874e-06
3	32375	7.01	-1.6733e-06
3	32921	7.11	-1.00716e-06
3	33467	7.21	-4.42628e-07
3	34013	7.31	2.84224e-08
3	34559	7.41	4.14339e-07
3	35105	7.51	7.23492e-07
3	35651	7.61	9.6413e-07
3	36197	7.71	1.14424e-06
3	36743	7.81	1.27148e-06
3	37289	7.91	1.35305e-06
3	37843	8.01	1.3957e-06
3	38389	8.11	1.40565e-06
3	38935	8.21	1.3886e-06
3	39481	8.31	1.34971e-06
3	40027	8.41	1.2936e-06
3	40573	8.51	1.22437e-06
3	41119	8.61	1.14561e-06
3	41665	8.71	1.06046e-06
3	42211	8.81	9.71582e-07
3	42757	8.91	8.81246e-07
3	43311	9.01	7.91334e-07
3	43857	9.11	7.03381e-07
3	44403	9.21	6.18613e-07
3	44949	9.31	5.37979e-07
3	45495	9.41	4.62183e-07
3	46041	9.51	3.91714e-07
3	46587	9.61	3.26878e-07
3	47133	9.71	2.67827e-07
3	47679	9.81	2.14581e-07
3	48225	9.91	1.67052e-07
3	50805	10.01	1.25066e-07
3	51351	10.11	8.83794e-08
3	51897	10.21	5.66978e-08
3	52443	10.31	2.96922e-08
3	52989	10.41	7.00453e-09
3	53535	10.51	-1.17325e-08
3	54081	10.61	-2.68933e-08
3	54627	10.71	-3.88482e-08
3	55173	10.81	-4.79581e-08
3	55719	10.91	-5.45704e-08
3	56273	11.01	-5.90177e-08
3	56819	11.11	-6.16069e-08
3	57365	11.21	-6.26265e-08
3	57911	11.31	-6.23395e-08
3	58457	11.41	-6.09859e-08
3	59003	11.51	-5.87811e-08
3	59549	11.61	-5.59183e-08
3	60095	11.71	-5.25674e-08
3	60641	11.81	-4.88761e-08
3	61187	11.91	-4.4971e-08
3	61741	12.01	-4.09599e-08
3	62287	12.11	-3.69354e-08
3	62833	12.21	-3.29713e-08
3	63379	12.31	-2.9128e-08
3	63925	12.41	-2.54531e-08
3	64471	12.51	-2.19821e-08
3	65017	12.61	-1.87399e-08
3	65563	12.71	-1.57428e-08
3	66109	12.81	-1.30029e-08
3	66655	12.91	-1.05217e-08
3	67209	13.01	-8.29772e-09
3	67755	13.11	-6.32454e-09
3	68301	13.21	-4.59224e-09
3	68847	13.31	-3.08802e-09
3	69393	13.41	-1.79838e-09
3	69939	13.51	-7.08411e-10
3	70485	13.61	1.98241e-10
3	71031	13.71	9.37916e-10
3	71577	13.81	1.52767e-09
3	72123	13.91	1.98384e-09
3	72677	14.01	2.32276e-09
3	73223	14.11	2.55937e-09
3	73769	14.21	2.70788e-09
3	74315	14.31	2.78249e-09
3	74861	14.41	2.79243e-09
3	75407	14.51	2.7498e-09
3	75953	14.61	2.66525e-09
3	76499	14.71	2.54872e-09
3	77045	14.81	2.40803e-09
3	77591	14.91	2.24887e-09
3	78145	15.01	2.07763e-09
3	78691	15.11	1.89999e-09
3	79237	15.21	1.72236e-09
3	79783	15.31	1.54472e-09
3	80329	15.41	1.37064e-09
3	80875	15.51	1.20295e-09
3	81421	15.61	1.04379e-09
3	81967	15.71	8.94573e-10
3	82513	15.81	7.56017e-10
3	83059	15.91	6.29541e-10
3	83613	16.01	5.13012e-10
3	84159	16.11	4.09273e-10
3	84705	16.21	3.16902e-10
3	85251	16.31	2.3519e-10
3	85797	16.41	1.63425e-10
3	86343	16.51	1.02318e-10
3	86889	16.61	4.9738e-11
3	87435	16.71	5.68434e-12
3	87981	16.81	-3.05533e-11
3	88527	16.91	-5.8975e-11
3	89081	17.01	-8.10019e-11
3	89627	17.11	-9.80549e-11
3	90173	17.21	-1.11555e-10
3	90719	17.31	-1.18661e-10
3	91265	17.41	-1.23634e-10
3	91811	17.51	-1.23634e-10
3	92357	17.61	-1.23634e-10
3	92903	17.71	-1.21503e-10
3	93449	17.81	-1.14397e-10
3	93995	17.91	-1.07292e-10
3	94549	18.01	-1.00187e-10
3	95095	18.11	-9.30811e-11
3	95641	18.21	-8.59757e-11
3	96187	18.31	-7.88702e-11
3	96733	18.41	-7.17648e-11
3	97279	18.51	-6.46594e-11
3	97825	18.61	-5.7554e-11
3	98371	18.71	-5.04485e-11
3	98917	18.81	-4.33431e-11
3	99463	18.91	-3.62377e-11
3	100017	19.01	-2.91323e-11
3	100563	19.11	-2.20268e-11
3	101109	19.21	-1.7053e-11
3	101655	19.31	-1.49214e-11
3	102201	19.41	-1.35003e-11
3	102747	19.51	-1.27898e-11
3	103293	19.61	-1.13687e-11
3	103839	19.71	-9.9476e-12
3	104385	19.81	-9.23706e-12
3	104931	19.91	-8.52651e-12
3	105485	20.01	-7.81597e-12
3	106031	20.11	-7.10543e-12
3	106577	20.21	-6.39488e-12
3	107123	20.31	-5.68434e-12
3	107669	20.41	-4.9738e-12
3	108215	20.51	-4.26326e-12
3	108761	20.61	-4.26326e-12
3	109307	20.71	-3.55271e-12
3	109853	20.81	-3.55271e-12
3	110399	20.91	-2.84217e-12
3	110953	21.01	-2.84217e-12
3	111499	21.11	-2.84217e-12
3	112045	21.21	-2.13163e-12
3	112591	21.31	-2.13163e-12
3	113137	21.41	-2.13163e-12
3	113683	21.51	-1.42109e-12
3	114229	21.61	-1.42109e-12
3	114775	21.71	-1.42109e-12
3	115321	21.81	-1.42109e-12
3	115867	21.91	-1.42109e-12
3	116421	22.01	-7.10543e-13
3	116967	22.11	-7.10543e-13
3	117513	22.21	-7.10543e-13
3	118059	22.31	-7.10543e-13
3	118605	22.41	-7.10543e-13
3	119151	22.51	-7.10543e-13
3	119697	22.61	-7.10543e-13
3	120243	22.71	-7.10543e-13
3	120789	22.81	-7.10543e-13
3	121335	22.91	-7.10543e-13
3	121889	23.01	0
3	122435	23.11	0
3	122981	23.21	0
3	123527	23.31	0
3	124073	23.41	0
3	124619	23.51	0
3	125165	23.61	0
3	125711	23.71	0
3	126257	23.81	0
3	126803	23.91	0
3	127357	24.01	0
3	127903	24.11	0
3	128449	24.21	0
3	128995	24.31	0
3	129541	24.41	0
3	130087	24.51	0
3	130633	24.61	0
3	131179	24.71	0
3	131725	24.81	0
3	132271	24.91	0
3	132825	25.01	0
3	133371	25.11	0
3	133917	25.21	0
3	134463	25.31	0
3	135009	25.41	0
3	135555	25.51	0
3	136101	25.61	0
3	136647	25.71	0
3	137193	25.81	0
3	137739	25.91	0
3	138293	26.01	0
3	138839	26.11	0
3	139385	26.21	0
3	139931	26.31	0
3	140477	26.41	0
3	141023	26.51	0
3	141569	26.61	0
3	142115	26.71	0
3	142661	26.81	0
3	143207	26.91	0
3	143761	27.01	0
3	144307	27.11	0
3	144853	27.21	0
3	145399	27.31	0
3	145945	27.41	0
3	146491	27.51	0
3	147037	27.61	0
3	147583	27.71	0
3	148129	27.81	0
3	148675	27.91	0
3	149229	28.01	0
3	149775	28.11	0
3	150321	28.21	0
3	150867	28.31	0
3	151413	28.41	0
3	151959	28.51	0
3	152505	28.61	0
3	153051	28.71	0
3	153597	28.81	0
3	154143	28.91	0
3	154697	29.01	0
3	155243	29.11	0
3	155789	29.21	0
3	156335	29.31	0
3	156881	29.41	0
3	157427	29.51	0
3	157973	29.61	0
3	158519	29.71	0
3	159065	29.81	0
3	159611	29.91	0
3	160165	30.01	0
3	160711	30.11	0
3	161257	30.21	0
3	161803	30.31	0
3	162349	30.41	0
3	162895	30.51	0
3	163441	30.61	0
3	163987	30.71	0
3	164533	30.81	0
3	165079	30.91	0
3	165633	31.01	0
3	166179	31.11	0
3	166725	31.21	0
3	167271	31.31	0
3	167817	31.41	0
3	168363	31.51	0
3	168909	31.61	0
3	169455	31.71	0
3	170001	31.81	0
3	170547	31.91	0
3	171101	32.01	0
3	171647	32.11	0
3	172193	32.21	0
3	172739	32.31	0
3	173285	32.41	0
3	173831	32.51	0
3	174377	32.61	0
3	174923	32.71	0
3	175469	32.81	0
3	176015	32.91	0
3	176569	33.01	0
3	177115	33.11	0
3	177661	33.21	0
3	178207	33.31	0
3	178753	33.41	0
3	179299	33.51	0
3	179845	33.61	0
3	180391	33.71	0
3	180937	33.81	0
3	181483	33.91	0
3	182037	34.01	0
3	182583	34.11	0
3	183129	34.21	0
3	183675	34.31	0
3	184221	34.41	0
3	184767	34.51	0
3	185313	34.61	0
3	185859	34.71	0
3	186405	34.81	0
3	186951	34.91	0
3	187505	35.01	0
3	188051	35.11	0
3	188597	35.21	0
3	189143	35.31	0
3	189689	35.41	0
3	190235	35.51	0
3	190781	35.61	0
3	191327	35.71	0
3	191873	35.81	0
3	192419	35.91	0
3	192973	36.01	0
3	193519	36.11	0
3	194065	36.21	0
3	194611	36.31	0
3	195157	36.41	0
3	195703	36.51	0
3	196249	36.61	0
3	196795	36.71	0
3	197341	36.81	0
3	197887	36.91	0
3	198441	37.01	0
3	198987	37.11	0
3	199533	37.21	0
3	200079	37.31	0
3	200625	37.41	0
3	201171	37.51	0
3	201717	37.61	0
3	202263	37.71	0
3	202809	37.81	0
3	203355	37.91	0
3	203909	38.01	0
3	204455	38.11	0
3	205001	38.21	0
3	205547	38.31	0
3	206093	38.41	0
3	206639	38.51	0
3	207185	38.61	0
3	207731	38.71	0
3	208277	38.81	0
3	208823	38.91	0
3	209377	39.01	0
3	209923	39.11	0
3	210469	39.21	0
3	211015	39.31	0
3	211561	39.41	0
3	212107	39.51	0
3	212653	39.61	0
3	213199	39.71	0
3	213745	39.81	0
3	214291	39.91	0
3	214845	40.01	0
3	215391	40.11	0
3	215937	40.21	0
3	216483	40.31	0
3	217029	40.41	0
3	217575	40.51	0
3	218121	40.61	0
3	218667	40.71	0
3	219213	40.81	0
3	219759	40.91	0
3	220313	41.01	0
3	220859	41.11	0
3	221405	41.21	0
3	221951	41.31	0
3	222497	41.41	0
3	223043	41.51	0
3	223589	41.61	0
3	224135	41.71	0
3	224681	41.81	0
3	225227	41.91	0
3	225781	42.01	0
3	226327	42.11	0
3	226873	42.21	0
3	227419	42.31	0
3	227965	42.41	0
3	228511	42.51	0
3	229057	42.61	0
3	229603	42.71	0
3	230149	42.81	0
3	230695	42.91	0
3	231249	43.01	0
3	231795	43.11	0
3	232341	43.21	0
3	232887	43.31	0
3	233433	43.41	0
3	233979	43.51	0
3	234525	43.61	0
3	235071	43.71	0
3	235617	43.81	0
3	236163	43.91	0
3	236717	44.01	0
3	237263	44.11	0
3	237809	44.21	0
3	238355	44.31	0
3	238901	44.41	0
3	239447	44.51	0
3	239993	44.61	0
3	240539	44.71	0
3	241085	44.81	0
3	241631	44.91	0
3	242185	45.01	0
3	242731	45.11	0
3	243277	45.21	0
3	243823	45.31	0
3	244369	45.41	0
3	244915	45.51	0
3	245461	45.61	0
3	246007	45.71	0
3	246553	45.81	0
3	247099	45.91	0
3	247653	46.01	0
3	248199	46.11	0
3	248745	46.21	0
3	249291	46.31	0
3	249837	46.41	0
3	250383	46.51	0
3	250929	46.61	0
3	251475	46.71	0
3	252021	46.81	0
3	252567	46.91	0
3	253121	47.01	0
3	253667	47.11	0
3	254213	47.21	0
3	254759	47.31	0
3	255305	47.41	0
3	255851	47.51	0
3	256397	47.61	0
3	256943	47.71	0
3	257489	47.81	0
3	258035	47.91	0
3	258589	48.01	0
3	259135	48.11	0
3	259681	48.21	0
3	260227	48.31	0
3	260773	48.41	0
3	261319	48.51	0
3	261865	48.61	0
3	262411	48.71	0
3	262957	48.81	0
3	263503	48.91	0
3	264057	49.01	0
3	264603	49.11	0
3	265149	49.21	0
3	265695	49.31	0
3	266241	49.41	0
3	266787	49.51	0
3	267333	49.61	0
3	267879	49.71	0
3	268425	49.81	0
3	268971	49.91	0
3	269525	50.01	0
3	270071	50.11	0
3	270617	50.21	0
3	271163	50.31	0
3	271709	50.41	0
3	272255	50.51	0
3	272801	50.61	0
3	273347	50.71	0
3	273893	50.81	0
3	274439	50.91	0
3	274993	51.01	0
3	275539	51.11	0
3	276085	51.21	0
3	276631	51.31	0
3	277177	51.41	0
3	277723	51.51	0
3	278269	51.61	0
3	278815	51.71	0
3	279361	51.81	0
3	279907	51.91	0
3	280461	52.01	0
3	281007	52.11	0
3	281553	52.21	0
3	282099	52.31	0
3	282645	52.41	0
3	283191	52.51	0
3	283737	52.61	0
3	284283	52.71	0
3	284829	52.81	0
3	285375	52.91	0
3	285929	53.01	0
3	286475	53.11	0
3	287021	53.21	0
3	287567	53.31	0
3	288113	53.41	0
3	288659	53.51	0
3	289205	53.61	0
3	289751	53.71	0
3	290297	53.81	0
3	290843	53.91	0
3	291397	54.01	0
3	291943	54.11	0
3	292489	54.21	0
3	293035	54.31	0
3	293581	54.41	0
3	294127	54.51	0
3	294673	54.61	0
3	295219	54.71	0
3	295765	54.81	0
3	296311	54.91	0
3	296865	55.01	0
3	297411	55.11	0
3	297957	55.21	0
3	298503	55.31	0
3	299049	55.41	0
3	299595	55.51	0
3	300141	55.61	0
3	300687	55.71	0
3	301233	55.81	0
3	301779	55.91	0
3	302333	56.01	0
3	302879	56.11	0
3	303425	56.21	0
3	303971	56.31	0
3	304517	56.41	0
3	305063	56.51	0
3	305609	56.61	0
3	306155	56.71	0
3	306701	56.81	0
3	307247	56.91	0
3	307801	57.01	0
3	308347	57.11	0
3	308893	57.21	0
3	309439	57.31	0
3	309985	57.41	0
3	310531	57.51	0
3	311077	57.61	0
3	311623	57.71	0
3	312169	57.81	0
3	312715	57.91	0
3	313269	58.01	0
3	313815	58.11	0
3	314361	58.21	0
3	314907	58.31	0
3	315453	58.41	0
3	315999	58.51	0
3	316545	58.61	0
3	317091	58.71	0
3	317637	58.81	0
3	318183	58.91	-0.024921
3	318737	59.01	-0.0778458
3	319283	59.11	-0.118621
3	319829	59.21	-0.148732
3	320375	59.31	-0.169571
3	320921	59.41	-0.18243
3	321467	59.51	-0.188502
3	322013	59.61	-0.188876
3	322559	59.71	-0.184542
3	323105	59.81	-0.176389
3	323651	59.91	-0.165215
3	324205	60.01	-0.151722
3	324751	60.11	-0.13653
3	325297	60.21	-0.120177
3	325843	60.31	-0.103127
3	326389	60.41	-0.085772
3	326935	60.51	-0.0684447
3	327481	60.61	-0.0514185
3	328027	60.71	-0.0349154
3	328573	60.81	-0.0191112
3	329119	60.91	-0.00414105
3	329673	61.01	0.00989599
3	330219	61.11	0.0229321
3	330765	61.21	0.0349263
3	331311	61.31	0.0458607
3	331857	61.41	0.0557365
3	332403	61.51	0.064571
3	332949	61.61	0.0723943
3	333495	61.71	0.0792468
3	334041	61.81	0.0851768
3	334587	61.91	0.0902386
3	335141	62.01	0.0944902
3	335687	62.11	0.0979921
3	336233	62.21	0.100806
3	336779	62.31	0.102994
3	337325	62.41	0.104616
3	337871	62.51	0.105731
3	338417	62.61	0.106396
3	338963	62.71	0.106665
3	339509	62.81	0.105758
3	340055	62.91	0.103117
3	340609	63.01	0.0991016
3	341155	63.11	0.0940298
3	341701	63.21	0.0881827
3	342247	63.31	0.0818043
3	342793	63.41	0.0751046
3	343339	63.51	0.0682615
3	343885	63.61	0.0614234
3	344431	63.71	0.0547121
3	344977	63.81	0.0482252
3	345523	63.91	0.0420387
3	346077	64.01	0.0362097
3	346623	64.11	0.0307783
3	347169	64.21	0.0257707
3	347715	64.31	0.0212005
3	348261	64.41	0.0170711
3	348807	64.51	0.0133774
3	349353	64.61	0.0101073
3	349899	64.71	0.00724339
3	350445	64.81	0.00476408
3	350991	64.91	0.00264474
3	351545	65.01	0.000858707
3	352091	65.11	-0.000621865
3	352637	65.21	-0.0018253
3	353183	65.31	-0.00277979
3	353729	65.41	-0.00351295
3	354275	65.51	-0.00405139
3	354821	65.61	-0.00442043
3	355367	65.71	-0.00464389
3	355913	65.81	-0.00474391
3	356459	65.91	-0.00474088
3	357013	66.01	-0.00465336
3	357559	66.11	-0.0044981
3	358105	66.21	-0.00429006
3	358651	66.31	-0.00404244
[...]
104	400752	74	4
104	406220	75	4
104	411688	76	4
104	417156	77	4
104	422624	78	4
104	428092	79	4
104	433560	80	4
104	439028	81	4
104	444496	82	4
104	449964	83	4
104	455432	84	4
104	460900	85	4
104	466368	86	4
104	471836	87	4
104	477304	88	4
104	482772	89	4
104	488240	90	4
104	493708	91	4
104	499176	92	4
104	504644	93	4
104	510112	94	4
104	515580	95	4
104	521048	96	4
104	526516	97	4
104	531984	98	4
104	537452	99	4
104	542920	100	4
105	5030	2	0.022473
105	10498	3	0.02497
105	15966	4	0.02497
105	21434	5	0.02497
105	26902	6	0.02497
105	32370	7	0.02497
105	37838	8	0.02497
105	43306	9	0.02497
105	48775	10	0.02497
105	56268	11	0.027011520365
105	61736	12	0.02497
105	67204	13	0.02497
105	72672	14	0.02497
105	78140	15	0.02497
105	83608	16	0.02497
105	89076	17	0.02497
105	94544	18	0.02497
105	100012	19	0.02497
105	105480	20	0.02497
105	110948	21	0.02497
105	116416	22	0.02497
105	121884	23	0.02497
105	127352	24	0.02497
105	132820	25	0.02497
105	138288	26	0.02497
105	143756	27	0.02497
105	149224	28	0.02497
105	154692	29	0.02497
105	160160	30	0.02497
105	165628	31	0.02497
105	171096	32	0.02497
105	176564	33	0.02497
105	182032	34	0.02497
105	187500	35	0.02497
105	192968	36	0.02497
105	198436	37	0.02497
105	203904	38	0.02497
105	209372	39	0.02497
105	214840	40	0.02497
105	220308	41	0.02497
105	225776	42	0.02497
105	231244	43	0.02497
105	236712	44	0.02497
105	242180	45	0.02497
105	247648	46	0.02497
105	253116	47	0.02497
105	258584	48	0.02497
105	264052	49	0.02497
105	269520	50	0.02497
105	274988	51	0.02497
105	280456	52	0.02497
105	285924	53	0.02497
105	291392	54	0.02497
105	296860	55	0.02497
105	302328	56	0.02497
105	307796	57	0.02497
105	313264	58	0.02497
105	318732	59	0.02497
105	324200	60	0.02497
105	329668	61	0.02497
105	335136	62	0.02497
105	340604	63	0.02497
105	346072	64	0.02497
105	351540	65	0.02497
105	357008	66	0.02497
105	362476	67	0.02497
105	367944	68	0.02497
105	373412	69	0.02497
105	378880	70	0.02497
105	384348	71	0.02497
105	389816	72	0.02497
105	395284	73	0.02497
105	400752	74	0.02497
105	406220	75	0.02497
105	411688	76	0.02497
105	417156	77	0.02497
105	422624	78	0.02497
105	428092	79	0.02497
105	433560	80	0.02497
105	439028	81	0.02497
105	444496	82	0.02497
105	449964	83	0.02497
105	455432	84	0.02497
105	460900	85	0.02497
105	466368	86	0.02497
105	471836	87	0.02497
105	477304	88	0.02497
105	482772	89	0.02497
105	488240	90	0.02497
105	493708	91	0.02497
105	499176	92	0.02497
105	504644	93	0.02497
105	510112	94	0.02497
105	515580	95	0.02497
105	521048	96	0.02497
105	526516	97	0.02497
105	531984	98	0.02497
105	537452	99	0.02497
105	542920	100	0.02497
106	5030	2	0
106	10498	3	0
106	15966	4	0
106	21434	5	0
106	26902	6	0
106	32370	7	0
106	37838	8	0
106	43306	9	0
106	48775	10	0
106	56268	11	0
106	61736	12	0
106	67204	13	0
106	72672	14	0
106	78140	15	0
106	83608	16	0
106	89076	17	0
106	94544	18	0
106	100012	19	0
106	105480	20	0
106	110948	21	0
106	116416	22	0
106	121884	23	0
106	127352	24	0
106	132820	25	0
106	138288	26	0
106	143756	27	0
106	149224	28	0
106	154692	29	0
106	160160	30	0
106	165628	31	0
106	171096	32	0
106	176564	33	0
106	182032	34	0
106	187500	35	0
106	192968	36	0
106	198436	37	0
106	203904	38	0
106	209372	39	0
106	214840	40	0
106	220308	41	0
106	225776	42	0
106	231244	43	0
106	236712	44	0
106	242180	45	0
106	247648	46	0
106	253116	47	0
106	258584	48	0
106	264052	49	0
106	269520	50	0
106	274988	51	0
106	280456	52	0
106	285924	53	0
106	291392	54	0
106	296860	55	0
106	302328	56	0
106	307796	57	0
106	313264	58	0
106	318732	59	0
106	324200	60	0
106	329668	61	0
106	335136	62	0
106	340604	63	0
106	346072	64	0
106	351540	65	0
106	357008	66	0
106	362476	67	0
106	367944	68	0
106	373412	69	0
106	378880	70	0
106	384348	71	0
106	389816	72	0
106	395284	73	0
106	400752	74	0
106	406220	75	0
106	411688	76	0
106	417156	77	0
106	422624	78	0
106	428092	79	0
106	433560	80	0
106	439028	81	0
106	444496	82	0
106	449964	83	0
106	455432	84	0
106	460900	85	0
106	466368	86	0
106	471836	87	0
106	477304	88	0
106	482772	89	0
106	488240	90	0
106	493708	91	0
106	499176	92	0
106	504644	93	0
106	510112	94	0
106	515580	95	0
106	521048	96	0
106	526516	97	0
106	531984	98	0
106	537452	99	0
106	542920	100	0
107	5031	2	5
107	10499	3	5
107	15967	4	5
107	21435	5	5
107	26903	6	5
107	32371	7	5
107	37839	8	5
107	43307	9	5
107	48776	10	5
107	56269	11	5
107	61737	12	5
107	67205	13	5
107	72673	14	5
107	78141	15	5
107	83609	16	5
107	89077	17	5
107	94545	18	5
107	100013	19	5
107	105481	20	5
107	110949	21	5
107	116417	22	5
107	121885	23	5
107	127353	24	5
107	132821	25	5
107	138289	26	5
107	143757	27	5
107	149225	28	5
107	154693	29	5
107	160161	30	5
107	165629	31	5
107	171097	32	5
107	176565	33	5
107	182033	34	5
107	187501	35	5
107	192969	36	5
107	198437	37	5
107	203905	38	5
107	209373	39	5
107	214841	40	5
107	220309	41	5
107	225777	42	5
107	231245	43	5
107	236713	44	5
107	242181	45	5
107	247649	46	5
107	253117	47	5
107	258585	48	5
107	264053	49	5
107	269521	50	5
107	274989	51	5
107	280457	52	5
107	285925	53	5
107	291393	54	5
107	296861	55	5
107	302329	56	5
107	307797	57	5
107	313265	58	5
107	318733	59	5
107	324201	60	5
107	329669	61	5
107	335137	62	5
107	340605	63	5
107	346073	64	5
107	351541	65	5
107	357009	66	5
107	362477	67	5
107	367945	68	5
107	373413	69	5
107	378881	70	5
107	384349	71	5
107	389817	72	5
107	395285	73	5
107	400753	74	5
107	406221	75	5
107	411689	76	5
107	417157	77	5
107	422625	78	5
107	428093	79	5
107	433561	80	5
107	439029	81	5
107	444497	82	5
107	449965	83	5
107	455433	84	5
107	460901	85	5
107	466369	86	5
107	471837	87	5
107	477305	88	5
107	482773	89	5
107	488241	90	5
107	493709	91	5
107	499177	92	5
107	504645	93	5
107	510113	94	5
107	515581	95	5
107	521049	96	5
107	526517	97	5
107	531985	98	5
107	537453	99	5
107	542921	100	5
108	5031	2	0.022473
108	10499	3	0.02497
108	15967	4	0.02497
108	21435	5	0.02497
108	26903	6	0.02497
108	32371	7	0.02497
108	37839	8	0.02497
108	43307	9	0.02497
108	48776	10	0.02497
108	56269	11	0.027011480336
108	61737	12	0.02497
108	67205	13	0.02497
108	72673	14	0.02497
108	78141	15	0.02497
108	83609	16	0.02497
108	89077	17	0.02497
108	94545	18	0.02497
108	100013	19	0.02497
108	105481	20	0.02497
108	110949	21	0.02497
108	116417	22	0.02497
108	121885	23	0.02497
108	127353	24	0.02497
108	132821	25	0.02497
108	138289	26	0.02497
108	143757	27	0.02497
108	149225	28	0.02497
108	154693	29	0.02497
108	160161	30	0.02497
108	165629	31	0.02497
108	171097	32	0.02497
108	176565	33	0.02497
108	182033	34	0.02497
108	187501	35	0.02497
108	192969	36	0.02497
108	198437	37	0.02497
108	203905	38	0.02497
108	209373	39	0.02497
108	214841	40	0.02497
108	220309	41	0.02497
108	225777	42	0.02497
108	231245	43	0.02497
108	236713	44	0.02497
108	242181	45	0.02497
108	247649	46	0.02497
108	253117	47	0.02497
108	258585	48	0.02497
108	264053	49	0.02497
108	269521	50	0.02497
108	274989	51	0.02497
108	280457	52	0.02497
108	285925	53	0.02497
108	291393	54	0.02497
108	296861	55	0.02497
108	302329	56	0.02497
108	307797	57	0.02497
108	313265	58	0.02497
108	318733	59	0.02497
108	324201	60	0.02497
108	329669	61	0.02497
108	335137	62	0.02497
108	340605	63	0.02497
108	346073	64	0.02497
108	351541	65	0.02497
108	357009	66	0.02497
108	362477	67	0.02497
108	367945	68	0.02497
108	373413	69	0.02497
108	378881	70	0.02497
108	384349	71	0.02497
108	389817	72	0.02497
108	395285	73	0.02497
108	400753	74	0.02497
108	406221	75	0.02497
108	411689	76	0.02497
108	417157	77	0.02497
108	422625	78	0.02497
108	428093	79	0.02497
108	433561	80	0.02497
108	439029	81	0.02497
108	444497	82	0.02497
108	449965	83	0.02497
108	455433	84	0.02497
108	460901	85	0.02497
108	466369	86	0.02497
108	471837	87	0.02497
108	477305	88	0.02497
108	482773	89	0.02497
108	488241	90	0.02497
108	493709	91	0.02497
108	499177	92	0.02497
108	504645	93	0.02497
108	510113	94	0.02497
108	515581	95	0.02497
108	521049	96	0.02497
108	526517	97	0.02497
108	531985	98	0.02497
108	537453	99	0.02497
108	542921	100	0.02497
109	5031	2	0
109	10499	3	0
109	15967	4	0
109	21435	5	0
109	26903	6	0
109	32371	7	0
109	37839	8	0
109	43307	9	0
109	48776	10	0
109	56269	11	0
109	61737	12	0
109	67205	13	0
109	72673	14	0
109	78141	15	0
109	83609	16	0
109	89077	17	0
109	94545	18	0
109	100013	19	0
109	105481	20	0
109	110949	21	0
109	116417	22	0
109	121885	23	0
109	127353	24	0
109	132821	25	0
109	138289	26	0
109	143757	27	0
109	149225	28	0
109	154693	29	0
109	160161	30	0
109	165629	31	0
109	171097	32	0
109	176565	33	0
109	182033	34	0
109	187501	35	0
109	192969	36	0
109	198437	37	0
109	203905	38	0
109	209373	39	0
109	214841	40	0
109	220309	41	0
109	225777	42	0
109	231245	43	0
109	236713	44	0
109	242181	45	0
109	247649	46	0
109	253117	47	0
109	258585	48	0
109	264053	49	0
109	269521	50	0
109	274989	51	0
109	280457	52	0
109	285925	53	0
109	291393	54	0
109	296861	55	0
109	302329	56	0
109	307797	57	0
109	313265	58	0
109	318733	59	0
109	324201	60	0
109	329669	61	0
109	335137	62	0
109	340605	63	0
109	346073	64	0
109	351541	65	0
109	357009	66	0
109	362477	67	0
109	367945	68	0
109	373413	69	0
109	378881	70	0
109	384349	71	0
109	389817	72	0
109	395285	73	0
109	400753	74	0
109	406221	75	0
109	411689	76	0
109	417157	77	0
109	422625	78	0
109	428093	79	0
109	433561	80	0
109	439029	81	0
109	444497	82	0
109	449965	83	0
109	455433	84	0
109	460901	85	0
109	466369	86	0
109	471837	87	0
109	477305	88	0
109	482773	89	0
109	488241	90	0
109	493709	91	0
109	499177	92	0
109	504645	93	0
109	510113	94	0
109	515581	95	0
109	521049	96	0
109	526517	97	0
109	531985	98	0
109	537453	99	0
109	542921	100	0
110	5032	2	6
110	10500	3	6
110	15968	4	6
110	21436	5	6
110	26904	6	6
110	32372	7	6
110	37840	8	6
110	43308	9	6
110	48777	10	6
110	56270	11	6
110	61738	12	6
110	67206	13	6
110	72674	14	6
110	78142	15	6
110	83610	16	6
110	89078	17	6
110	94546	18	6
110	100014	19	6
110	105482	20	6
110	110950	21	6
110	116418	22	6
110	121886	23	6
110	127354	24	6
110	132822	25	6
110	138290	26	6
110	143758	27	6
110	149226	28	6
110	154694	29	6
110	160162	30	6
110	165630	31	6
110	171098	32	6
110	176566	33	6
110	182034	34	6
110	187502	35	6
110	192970	36	6
110	198438	37	6
110	203906	38	6
110	209374	39	6
110	214842	40	6
110	220310	41	6
110	225778	42	6
110	231246	43	6
110	236714	44	6
110	242182	45	6
110	247650	46	6
110	253118	47	6
110	258586	48	6
110	264054	49	6
110	269522	50	6
110	274990	51	6
110	280458	52	6
110	285926	53	6
110	291394	54	6
110	296862	55	6
110	302330	56	6
110	307798	57	6
110	313266	58	6
110	318734	59	6
110	324202	60	6
110	329670	61	6
110	335138	62	6
110	340606	63	6
110	346074	64	6
110	351542	65	6
110	357010	66	6
110	362478	67	6
110	367946	68	6
110	373414	69	6
110	378882	70	6
110	384350	71	6
110	389818	72	6
110	395286	73	6
110	400754	74	6
110	406222	75	6
110	411690	76	6
110	417158	77	6
110	422626	78	6
110	428094	79	6
110	433562	80	6
110	439030	81	6
110	444498	82	6
110	449966	83	6
110	455434	84	6
110	460902	85	6
110	466370	86	6
110	471838	87	6
110	477306	88	6
110	482774	89	6
110	488242	90	6
110	493710	91	6
110	499178	92	6
110	504646	93	6
110	510114	94	6
110	515582	95	6
110	521050	96	6
110	526518	97	6
110	531986	98	6
110	537454	99	6
110	542922	100	6
111	5032	2	0.022473
111	10500	3	0.02497
111	15968	4	0.02497
111	21436	5	0.02497
111	26904	6	0.02497
111	32372	7	0.02497
111	37840	8	0.02497
111	43308	9	0.02497
111	48777	10	0.02497
111	56270	11	0.027106440308
111	61738	12	0.02497
111	67206	13	0.02497
111	72674	14	0.02497
111	78142	15	0.02497
111	83610	16	0.02497
111	89078	17	0.02497
111	94546	18	0.02497
111	100014	19	0.02497
111	105482	20	0.02497
111	110950	21	0.02497
111	116418	22	0.02497
111	121886	23	0.02497
111	127354	24	0.02497
111	132822	25	0.02497
111	138290	26	0.02497
111	143758	27	0.02497
111	149226	28	0.02497
111	154694	29	0.02497
111	160162	30	0.02497
111	165630	31	0.02497
111	171098	32	0.02497
111	176566	33	0.02497
111	182034	34	0.02497
111	187502	35	0.02497
111	192970	36	0.02497
111	198438	37	0.02497
111	203906	38	0.02497
111	209374	39	0.02497
111	214842	40	0.02497
111	220310	41	0.02497
111	225778	42	0.02497
111	231246	43	0.02497
111	236714	44	0.02497
111	242182	45	0.02497
111	247650	46	0.02497
111	253118	47	0.02497
111	258586	48	0.02497
111	264054	49	0.02497
111	269522	50	0.02497
111	274990	51	0.02497
111	280458	52	0.02497
111	285926	53	0.02497
111	291394	54	0.02497
111	296862	55	0.02497
111	302330	56	0.02497
111	307798	57	0.02497
111	313266	58	0.02497
111	318734	59	0.02497
111	324202	60	0.02497
111	329670	61	0.02497
111	335138	62	0.02497
111	340606	63	0.02497
111	346074	64	0.02497
111	351542	65	0.02497
111	357010	66	0.02497
111	362478	67	0.02497
111	367946	68	0.02497
111	373414	69	0.02497
111	378882	70	0.02497
111	384350	71	0.02497
111	389818	72	0.02497
111	395286	73	0.02497
111	400754	74	0.02497
111	406222	75	0.02497
111	411690	76	0.02497
111	417158	77	0.02497
111	422626	78	0.02497
111	428094	79	0.02497
111	433562	80	0.02497
111	439030	81	0.02497
111	444498	82	0.02497
111	449966	83	0.02497
111	455434	84	0.02497
111	460902	85	0.02497
111	466370	86	0.02497
111	471838	87	0.02497
111	477306	88	0.02497
111	482774	89	0.02497
111	488242	90	0.02497
111	493710	91	0.02497
111	499178	92	0.02497
111	504646	93	0.02497
111	510114	94	0.02497
111	515582	95	0.02497
111	521050	96	0.02497
111	526518	97	0.02497
111	531986	98	0.02497
111	537454	99	0.02497
111	542922	100	0.02497
112	5032	2	0
112	10500	3	0
112	15968	4	0
112	21436	5	0
112	26904	6	0
112	32372	7	0
112	37840	8	0
112	43308	9	0
112	48777	10	0
112	56270	11	0
112	61738	12	0
112	67206	13	0
112	72674	14	0
112	78142	15	0
112	83610	16	0
112	89078	17	0
112	94546	18	0
112	100014	19	0
112	105482	20	0
112	110950	21	0
112	116418	22	0
112	121886	23	0
112	127354	24	0
112	132822	25	0
112	138290	26	0
112	143758	27	0
112	149226	28	0
112	154694	29	0
112	160162	30	0
112	165630	31	0
112	171098	32	0
112	176566	33	0
112	182034	34	0
112	187502	35	0
112	192970	36	0
112	198438	37	0
112	203906	38	0
112	209374	39	0
112	214842	40	0
112	220310	41	0
112	225778	42	0
112	231246	43	0
112	236714	44	0
112	242182	45	0
112	247650	46	0
112	253118	47	0
112	258586	48	0
112	264054	49	0
112	269522	50	0
112	274990	51	0
112	280458	52	0
112	285926	53	0
112	291394	54	0
112	296862	55	0
112	302330	56	0
112	307798	57	0
112	313266	58	0
112	318734	59	0
112	324202	60	0
112	329670	61	0
112	335138	62	0
112	340606	63	0
112	346074	64	0
112	351542	65	0
112	357010	66	0
112	362478	67	0
112	367946	68	0
112	373414	69	0
112	378882	70	0
112	384350	71	0
112	389818	72	0
112	395286	73	0
112	400754	74	0
112	406222	75	0
112	411690	76	0
112	417158	77	0
112	422626	78	0
112	428094	79	0
112	433562	80	0
112	439030	81	0
112	444498	82	0
112	449966	83	0
112	455434	84	0
112	460902	85	0
112	466370	86	0
112	471838	87	0
112	477306	88	0
112	482774	89	0
112	488242	90	0
112	493710	91	0
112	499178	92	0
112	504646	93	0
112	510114	94	0
112	515582	95	0
112	521050	96	0
112	526518	97	0
112	531986	98	0
112	537454	99	0
112	542922	100	0
113	5033	2	7
113	10501	3	7
113	15969	4	7
113	21437	5	7
113	26905	6	7
113	32373	7	7
113	37841	8	7
113	43309	9	7
113	48778	10	7
113	56271	11	7
113	61739	12	7
113	67207	13	7
113	72675	14	7
113	78143	15	7
113	83611	16	7
113	89079	17	7
113	94547	18	7
113	100015	19	7
113	105483	20	7
113	110951	21	7
113	116419	22	7
113	121887	23	7
113	127355	24	7
113	132823	25	7
113	138291	26	7
113	143759	27	7
113	149227	28	7
113	154695	29	7
113	160163	30	7
113	165631	31	7
113	171099	32	7
113	176567	33	7
113	182035	34	7
113	187503	35	7
113	192971	36	7
113	198439	37	7
113	203907	38	7
113	209375	39	7
113	214843	40	7
113	220311	41	7
113	225779	42	7
113	231247	43	7
113	236715	44	7
113	242183	45	7
113	247651	46	7
113	253119	47	7
113	258587	48	7
113	264055	49	7
113	269523	50	7
113	274991	51	7
113	280459	52	7
113	285927	53	7
113	291395	54	7
113	296863	55	7
113	302331	56	7
113	307799	57	7
113	313267	58	7
113	318735	59	7
113	324203	60	7
113	329671	61	7
113	335139	62	7
113	340607	63	7
113	346075	64	7
113	351543	65	7
113	357011	66	7
113	362479	67	7
113	367947	68	7
113	373415	69	7
113	378883	70	7
113	384351	71	7
113	389819	72	7
113	395287	73	7
113	400755	74	7
113	406223	75	7
113	411691	76	7
113	417159	77	7
113	422627	78	7
113	428095	79	7
113	433563	80	7
113	439031	81	7
113	444499	82	7
113	449967	83	7
113	455435	84	7
113	460903	85	7
113	466371	86	7
113	471839	87	7
113	477307	88	7
113	482775	89	7
113	488243	90	7
113	493711	91	7
113	499179	92	7
113	504647	93	7
113	510115	94	7
113	515583	95	7
113	521051	96	7
113	526519	97	7
113	531987	98	7
113	537455	99	7
113	542923	100	7
114	5033	2	0.022473
114	10501	3	0.02497
114	15969	4	0.02497
114	21437	5	0.02497
114	26905	6	0.02497
114	32373	7	0.02497
114	37841	8	0.02497
114	43309	9	0.02497
114	48778	10	0.02497
114	56271	11	0.027139520367
114	61739	12	0.02497
114	67207	13	0.02497
114	72675	14	0.02497
114	78143	15	0.02497
114	83611	16	0.02497
114	89079	17	0.02497
114	94547	18	0.02497
114	100015	19	0.02497
114	105483	20	0.02497
114	110951	21	0.02497
114	116419	22	0.02497
114	121887	23	0.02497
114	127355	24	0.02497
114	132823	25	0.02497
114	138291	26	0.02497
114	143759	27	0.02497
114	149227	28	0.02497
114	154695	29	0.02497
114	160163	30	0.02497
114	165631	31	0.02497
114	171099	32	0.02497
114	176567	33	0.02497
114	182035	34	0.02497
114	187503	35	0.02497
114	192971	36	0.02497
114	198439	37	0.02497
114	203907	38	0.02497
114	209375	39	0.02497
114	214843	40	0.02497
114	220311	41	0.02497
114	225779	42	0.02497
114	231247	43	0.02497
114	236715	44	0.02497
114	242183	45	0.02497
114	247651	46	0.02497
114	253119	47	0.02497
114	258587	48	0.02497
114	264055	49	0.02497
114	269523	50	0.02497
114	274991	51	0.02497
114	280459	52	0.02497
114	285927	53	0.02497
114	291395	54	0.02497
114	296863	55	0.02497
114	302331	56	0.02497
114	307799	57	0.02497
114	313267	58	0.02497
114	318735	59	0.02497
114	324203	60	0.02497
114	329671	61	0.02497
114	335139	62	0.02497
114	340607	63	0.02497
114	346075	64	0.02497
114	351543	65	0.02497
114	357011	66	0.02497
114	362479	67	0.02497
114	367947	68	0.02497
114	373415	69	0.02497
114	378883	70	0.02497
114	384351	71	0.02497
114	389819	72	0.02497
114	395287	73	0.02497
114	400755	74	0.02497
114	406223	75	0.02497
114	411691	76	0.02497
114	417159	77	0.02497
114	422627	78	0.02497
114	428095	79	0.02497
114	433563	80	0.02497
114	439031	81	0.02497
114	444499	82	0.02497
114	449967	83	0.02497
114	455435	84	0.02497
114	460903	85	0.02497
114	466371	86	0.02497
114	471839	87	0.02497
114	477307	88	0.02497
114	482775	89	0.02497
114	488243	90	0.02497
114	493711	91	0.02497
114	499179	92	0.02497
114	504647	93	0.02497
114	510115	94	0.02497
114	515583	95	0.02497
114	521051	96	0.02497
114	526519	97	0.02497
114	531987	98	0.02497
114	537455	99	0.02497
114	542923	100	0.02497
115	5033	2	0
115	10501	3	0
115	15969	4	0
115	21437	5	0
115	26905	6	0
115	32373	7	0
115	37841	8	0
115	43309	9	0
115	48778	10	0
115	56271	11	0
115	61739	12	0
115	67207	13	0
115	72675	14	0
115	78143	15	0
115	83611	16	0
115	89079	17	0
115	94547	18	0
115	100015	19	0
115	105483	20	0
115	110951	21	0
115	116419	22	0
115	121887	23	0
115	127355	24	0
115	132823	25	0
115	138291	26	0
115	143759	27	0
115	149227	28	0
115	154695	29	0
115	160163	30	0
115	165631	31	0
115	171099	32	0
115	176567	33	0
115	182035	34	0
115	187503	35	0
115	192971	36	0
115	198439	37	0
115	203907	38	0
115	209375	39	0
115	214843	40	0
115	220311	41	0
115	225779	42	0
115	231247	43	0
115	236715	44	0
115	242183	45	0
115	247651	46	0
115	253119	47	0
115	258587	48	0
115	264055	49	0
115	269523	50	0
115	274991	51	0
115	280459	52	0
115	285927	53	0
115	291395	54	0
115	296863	55	0
115	302331	56	0
115	307799	57	0
115	313267	58	0
115	318735	59	0
115	324203	60	0
115	329671	61	0
115	335139	62	0
115	340607	63	0
115	346075	64	0
115	351543	65	0
115	357011	66	0
115	362479	67	0
115	367947	68	0
115	373415	69	0
115	378883	70	0
115	384351	71	0
115	389819	72	0
115	395287	73	0
115	400755	74	0
115	406223	75	0
115	411691	76	0
115	417159	77	0
115	422627	78	0
115	428095	79	0
115	433563	80	0
115	439031	81	0
115	444499	82	0
115	449967	83	0
115	455435	84	0
115	460903	85	0
115	466371	86	0
115	471839	87	0
115	477307	88	0
115	482775	89	0
115	488243	90	0
115	493711	91	0
115	499179	92	0
115	504647	93	0
115	510115	94	0
115	515583	95	0
115	521051	96	0
115	526519	97	0
115	531987	98	0
115	537455	99	0
115	542923	100	0

