file 2392053 1720583511                                         
version 3
run BreakRanksNoGui-26-20240710-05:51:41-234350
attr configname BreakRanksNoGui
attr datetime 20240710-05:51:41
attr datetimef 20240710-055141
attr experiment BreakRanksNoGui
attr inifile omnetpp.ini
attr iterationvars "$nCars=8, $platoonSize=8, $nLanes=1, $ploegH=0.5, $controller=1, $headway=0.1, $leaderHeadway=1.2, $leaderSpeed=130, $breakRanksSafetyDistance=2, $minSpeed=120, $maxSpeed=140, $beaconInterval=0.1, $priority=4, $packetSize=200, $sController=\"CACC\", $0=2, $1=0"
attr iterationvarsd nCars=8/platoonSize=8/nLanes=1/ploegH=0.5/controller=1/headway=0.1/leaderHeadway=1.2/leaderSpeed=130/breakRanksSafetyDistance=2/minSpeed=120/maxSpeed=140/beaconInterval=0.1/priority=4/packetSize=200/sController=CACC/2/0
attr iterationvarsf nCars=8,platoonSize=8,nLanes=1,ploegH=0.5,controller=1,headway=0.1,leaderHeadway=1.2,leaderSpeed=130,breakRanksSafetyDistance=2,minSpeed=120,maxSpeed=140,beaconInterval=0.1,priority=4,packetSize=200,sController=CACC,2,0-
attr measurement "$nCars=8, $platoonSize=8, $nLanes=1, $ploegH=0.5, $controller=1, $headway=0.1, $leaderHeadway=1.2, $leaderSpeed=130, $breakRanksSafetyDistance=2, $minSpeed=120, $maxSpeed=140, $beaconInterval=0.1, $priority=4, $packetSize=200, $sController=\"CACC\", $0=2, $1=0"
attr network Highway
attr processid 234350
attr repetition 6
attr replication #6
attr resultdir results
attr runnumber 26
attr seedset 6
itervar beaconInterval 0.1
itervar breakRanksSafetyDistance 2
itervar controller 1
itervar headway 0.1
itervar leaderHeadway 1.2
itervar leaderSpeed 130
itervar maxSpeed 140
itervar minSpeed 120
itervar nCars 8
itervar nLanes 1
itervar packetSize 200
itervar platoonSize 8
itervar ploegH 0.5
itervar priority 4
itervar sController "\"CACC\""
config image-path ../../../veins/images
config repeat 10
config extends BreakRanks
config *.manager.command "\"sumo\""
config *.manager.ignoreGuiCommands true
config output-vector-file results/BreakRanks_1_0.1_130_2/result_6.vec
config output-scalar-file results/BreakRanks_1_0.1_130_2/result_6.sca
config extends Platooning
config *.node[*].scenario_type "\"BreakRanksScenario\""
config *.manager.command "\"sumo-gui\""
config *.node[*].scenario_type "\"SimpleScenario\""
config cmdenv-express-mode true
config cmdenv-autoflush true
config cmdenv-status-frequency 15s
config num-rngs 6
config network Highway
config debug-on-errors true
config print-undisposed true
config *.playgroundSizeX 65000m
config *.playgroundSizeY 25000m
config *.playgroundSizeZ 50m
config sim-time-limit "100 s"
config *.annotations.draw false
config *.obstacles.debug false
config *.world.useTorus false
config *.world.use2D false
config *.manager.updateInterval 0.01s
config *.manager.host "\"localhost\""
config *.manager.moduleType "\"org.car2x.plexe.PlatoonCar\""
config *.manager.moduleName "\"node\""
config *.manager.moduleDisplayString "\"\""
config *.manager.autoShutdown true
config *.manager.margin 25
config *.connectionManager.sendDirect true
config *.connectionManager.maxInterfDist 2600m
config *.connectionManager.drawMaxIntfDist false
config *.**.nic.mac1609_4.useServiceChannel false
config *.**.nic.mac1609_4.txPower 100mW
config *.**.nic.mac1609_4.bitrate 6Mbps
config *.**.nic.mac1609_4.useAcks true
config *.**.nic.mac1609_4.ackErrorRate 0.0
config *.**.nic.mac1609_4.frameErrorRate 0.0
config *.**.nic.phy80211p.minPowerLevel -94dBm
config *.**.nic.phy80211p.maxTXPower 100mW
config *.**.nic.phy80211p.useNoiseFloor true
config *.**.nic.phy80211p.noiseFloor -95dBm
config *.**.nic.phy80211p.decider "xmldoc(\"config.xml\")"
config *.**.nic.phy80211p.analogueModels "xmldoc(\"config.xml\")"
config *.**.nic.phy80211p.usePropagationDelay true
config *.node[*].mobility.x 0
config *.node[*].mobility.y 0
config *.node[*].mobility.z 1.895
config seed-set 6
config **.seed 6
config *.node[*].prot.rng-0 2
config *.node[*].appl.rng-0 3
config *.node[*].scenario.rng-0 4
config **.traffic.rng-0 5
config *.manager.configFile "\"./sumocfg/freeway.sumo.cfg\""
config *.manager.launchConfig "xmldoc(\"./sumocfg/freeway.launchd.xml\")"
config **.numberOfCars 8
config **.numberOfCarsPerPlatoon 8
config **.numberOfLanes 1
config *.node[*].helper_type "\"PositionHelper\""
config *.node[*].scenario.caccC1 0.5
config *.node[*].scenario.caccXi 1
config *.node[*].scenario.caccOmegaN "0.2 Hz"
config *.node[*].scenario.caccSpacing "2 m"
config *.node[*].scenario.engineTau "0.5 s"
config *.node[*].scenario.ploegH 0.5s
config *.node[*].scenario.ploegKp 0.2
config *.node[*].scenario.ploegKd 0.7
config *.node[*].scenario.useRealisticEngine false
config *.node[*].scenario.useControllerAcceleration true
config *.node[*].scenario.nLanes 1
config **.numericController 1
config **.headway 0.1s
config *.node[*].scenario.accHeadway 0.1s
config *.node[*].scenario.leaderHeadway 1.2s
config *.node[*].scenario.leaderSpeed 130kmph
config *.node[*].appl_type "\"SimplePlatooningApp\""
config *.node[*].appl.*.scalar-recording true
config *.node[*].appl.*.vector-recording true
config *.node[0].appl.breakRanksSafetyDistance 2m
config *.node[*].appl.minSpeed 120kmph
config *.node[*].appl.maxSpeed 140kmph
config *.node[*].protocol_type "\"SimplePlatooningBeaconing\""
config *.node[*].prot.*.scalar-recording true
config *.node[*].prot.*.vector-recording true
config *.node[*].prot.beaconingInterval 0.1s
config *.node[*].prot.priority 4
config *.node[*].prot.packetSize 200
config **.traffic_type "\"PlatoonsTrafficManager\""
config **.traffic.platoonInsertTime "1 s"
config **.traffic.platoonInsertSpeed 130kmph
config **.traffic.nCars 8
config **.traffic.platoonSize 8
config **.traffic.nLanes 1
config **.traffic.platooningVType "\"vtypeauto\""
config **.traffic.controller "\"CACC\""
config **.traffic.platoonInsertDistance 2m
config **.traffic.platoonInsertHeadway 0s
config **.traffic.platoonLeaderHeadway 1.2s
config **.scalar-recording false
config **.vector-recording false

vector 0 Highway.node[0].appl distance ETV
vector 1 Highway.node[0].appl relativeSpeed ETV
vector 2 Highway.node[0].appl nodeId ETV
vector 3 Highway.node[0].appl acceleration ETV
vector 4 Highway.node[0].appl controllerAcceleration ETV
vector 5 Highway.node[0].appl speed ETV
vector 6 Highway.node[0].appl posx ETV
vector 7 Highway.node[0].appl posy ETV
vector 8 Highway.node[1].appl distance ETV
vector 9 Highway.node[1].appl relativeSpeed ETV
vector 10 Highway.node[1].appl nodeId ETV
vector 11 Highway.node[1].appl acceleration ETV
vector 12 Highway.node[1].appl controllerAcceleration ETV
vector 13 Highway.node[1].appl speed ETV
vector 14 Highway.node[1].appl posx ETV
vector 15 Highway.node[1].appl posy ETV
vector 16 Highway.node[2].appl distance ETV
vector 17 Highway.node[2].appl relativeSpeed ETV
vector 18 Highway.node[2].appl nodeId ETV
vector 19 Highway.node[2].appl acceleration ETV
vector 20 Highway.node[2].appl controllerAcceleration ETV
vector 21 Highway.node[2].appl speed ETV
vector 22 Highway.node[2].appl posx ETV
vector 23 Highway.node[2].appl posy ETV
vector 24 Highway.node[3].appl distance ETV
vector 25 Highway.node[3].appl relativeSpeed ETV
vector 26 Highway.node[3].appl nodeId ETV
vector 27 Highway.node[3].appl acceleration ETV
vector 28 Highway.node[3].appl controllerAcceleration ETV
vector 29 Highway.node[3].appl speed ETV
vector 30 Highway.node[3].appl posx ETV
vector 31 Highway.node[3].appl posy ETV
vector 32 Highway.node[4].appl distance ETV
vector 33 Highway.node[4].appl relativeSpeed ETV
vector 34 Highway.node[4].appl nodeId ETV
vector 35 Highway.node[4].appl acceleration ETV
vector 36 Highway.node[4].appl controllerAcceleration ETV
vector 37 Highway.node[4].appl speed ETV
vector 38 Highway.node[4].appl posx ETV
vector 39 Highway.node[4].appl posy ETV
vector 40 Highway.node[5].appl distance ETV
vector 41 Highway.node[5].appl relativeSpeed ETV
vector 42 Highway.node[5].appl nodeId ETV
vector 43 Highway.node[5].appl acceleration ETV
vector 44 Highway.node[5].appl controllerAcceleration ETV
vector 45 Highway.node[5].appl speed ETV
vector 46 Highway.node[5].appl posx ETV
vector 47 Highway.node[5].appl posy ETV
vector 48 Highway.node[6].appl distance ETV
vector 49 Highway.node[6].appl relativeSpeed ETV
vector 50 Highway.node[6].appl nodeId ETV
vector 51 Highway.node[6].appl acceleration ETV
vector 52 Highway.node[6].appl controllerAcceleration ETV
vector 53 Highway.node[6].appl speed ETV
vector 54 Highway.node[6].appl posx ETV
vector 55 Highway.node[6].appl posy ETV
vector 56 Highway.node[7].appl distance ETV
vector 57 Highway.node[7].appl relativeSpeed ETV
vector 58 Highway.node[7].appl nodeId ETV
vector 59 Highway.node[7].appl acceleration ETV
vector 60 Highway.node[7].appl controllerAcceleration ETV
vector 61 Highway.node[7].appl speed ETV
vector 62 Highway.node[7].appl posx ETV
vector 63 Highway.node[7].appl posy ETV
vector 64 Highway.node[1].prot leaderDelay ETV
vector 65 Highway.node[1].prot leaderDelayId ETV
vector 66 Highway.node[1].prot frontDelay ETV
vector 67 Highway.node[1].prot frontDelayId ETV
vector 68 Highway.node[2].prot leaderDelay ETV
vector 69 Highway.node[2].prot leaderDelayId ETV
vector 70 Highway.node[3].prot leaderDelay ETV
vector 71 Highway.node[3].prot leaderDelayId ETV
vector 72 Highway.node[4].prot leaderDelay ETV
vector 73 Highway.node[4].prot leaderDelayId ETV
vector 74 Highway.node[5].prot leaderDelay ETV
vector 75 Highway.node[5].prot leaderDelayId ETV
vector 76 Highway.node[6].prot leaderDelay ETV
vector 77 Highway.node[6].prot leaderDelayId ETV
vector 78 Highway.node[7].prot leaderDelay ETV
vector 79 Highway.node[7].prot leaderDelayId ETV
vector 80 Highway.node[7].prot frontDelay ETV
vector 81 Highway.node[7].prot frontDelayId ETV
vector 82 Highway.node[3].prot frontDelay ETV
vector 83 Highway.node[3].prot frontDelayId ETV
vector 84 Highway.node[6].prot frontDelay ETV
vector 85 Highway.node[6].prot frontDelayId ETV
vector 86 Highway.node[2].prot frontDelay ETV
vector 87 Highway.node[2].prot frontDelayId ETV
vector 88 Highway.node[4].prot frontDelay ETV
vector 89 Highway.node[4].prot frontDelayId ETV
vector 90 Highway.node[5].prot frontDelay ETV
vector 91 Highway.node[5].prot frontDelayId ETV
vector 92 Highway.node[0].prot nodeId ETV
vector 93 Highway.node[0].prot busyTime ETV
vector 94 Highway.node[0].prot collisions ETV
vector 95 Highway.node[1].prot nodeId ETV
vector 96 Highway.node[1].prot busyTime ETV
vector 97 Highway.node[1].prot collisions ETV
vector 98 Highway.node[2].prot nodeId ETV
vector 99 Highway.node[2].prot busyTime ETV
vector 100 Highway.node[2].prot collisions ETV
vector 101 Highway.node[3].prot nodeId ETV
vector 102 Highway.node[3].prot busyTime ETV
vector 103 Highway.node[3].prot collisions ETV
vector 104 Highway.node[4].prot nodeId ETV
vector 105 Highway.node[4].prot busyTime ETV
vector 106 Highway.node[4].prot collisions ETV
vector 107 Highway.node[5].prot nodeId ETV
vector 108 Highway.node[5].prot busyTime ETV
vector 109 Highway.node[5].prot collisions ETV
vector 110 Highway.node[6].prot nodeId ETV
vector 111 Highway.node[6].prot busyTime ETV
vector 112 Highway.node[6].prot collisions ETV
vector 113 Highway.node[7].prot nodeId ETV
vector 114 Highway.node[7].prot busyTime ETV
vector 115 Highway.node[7].prot collisions ETV
0	11185 17512 113 542208 1.11 99.91 989 -1 -1 -989 989
1	28697 16523 113 542208 1.11 99.91 989 0 0 0 0
2	45220 16523 113 542208 1.11 99.91 989 0 0 0 0
3	61743 18811 113 542208 1.11 99.91 989 -3.14892e-05 0.000707784 0.010991577126781 6.0508064149601e-06
4	80554 26469 113 542208 1.11 99.91 989 -4.89399e-05 0.00109259 0.010614843047836 8.6815283230331e-06
5	107023 22450 113 542208 1.11 99.91 989 36.11 36.1111 35713.866699999 1289666.6073546
6	129473 22346 113 542208 1.11 99.91 989 54.2699 3622.05 1817937.4804 4392862519.5697
7	151819 21468 113 542208 1.11 99.91 989 242.45 242.45 239783.05 58135400.472499
8	173287 21559 114 542209 1.11 99.91 989 -1 251.67 76526.44027 11535065.351252
9	194846 17978 114 542209 1.11 99.91 989 -1.39742e-05 5 2622.4407133512 10620.888667386
10	212824 17512 114 542209 1.11 99.91 989 1 1 989 989
11	230336 21577 114 542209 1.11 99.91 989 -1.43406 0.0638699 -31.057094937262 35.421610924106
12	251913 27262 114 542209 1.11 99.91 989 -1.5 0.099156 -30.208020251048 42.362889297476
13	279175 19502 114 542209 1.11 99.91 989 32.9008 36.1111 32960.9992 1099376.5540365
14	298677 23426 114 542209 1.11 99.91 989 48.2699 3340.91 1690201.6796 3771598241.4992
15	322103 22457 114 542209 1.11 99.91 989 242.45 245.75 242749.75 59583743.4125
16	344560 23364 115 542210 1.11 99.91 989 2 141.419 73443.14754 7040870.5395428
17	367924 20931 115 542210 1.11 99.91 989 -5.58466e-08 3.26036 2440.7391785646 6886.5799412365
18	388855 17512 115 542210 1.11 99.91 989 2 2 1978 3956
19	406367 21458 115 542210 1.11 99.91 989 -2.02229 0.0960203 -31.044871777353 49.306735244853
20	427825 27304 115 542210 1.11 99.91 989 -3.08597 0.14931 -29.649176504965 69.654609786705
21	455129 19479 115 542210 1.11 99.91 989 32.8507 36.1111 32945.828 1098341.635215
22	474608 22573 115 542210 1.11 99.91 989 42.2699 3333.4 1682931.7196 3746338308.6088
23	497181 22457 115 542210 1.11 99.91 989 242.45 242.45 239783.05 58135400.472499
24	519638 21825 116 542211 1.11 99.91 989 -1 74.0637 24667.0402 1274394.4562525
25	541463 21379 116 542211 1.11 99.91 989 -1 3.35725 232.40509617486 1163.551174776
26	562842 17512 116 542211 1.11 99.91 989 3 3 2967 8901
27	580354 24738 116 542211 1.11 99.91 989 -2.88427 1.44946 13.489590257163 207.27459077199
28	605092 26413 116 542211 1.11 99.91 989 -3.60523 1.5 14.371167434225 252.30591664442
29	631505 21578 116 542211 1.11 99.91 989 29.5527 38.1006 35639.9244 1290687.8593929
30	653083 23377 116 542211 1.11 99.91 989 36.2699 3596.58 1744828.9531 4131488787.4838
31	676460 22457 116 542211 1.11 99.91 989 242.45 252.35 244442.65 60427815.432501
32	698917 23309 117 542212 1.11 99.91 989 1.99999 82.3378 42675.59287 2194428.4473821
33	722226 26185 117 542212 1.11 99.91 989 -0.103462 4.84619 687.10468927677 1777.3900627386
34	748411 17512 117 542212 1.11 99.91 989 4 4 3956 15824
35	765923 22064 117 542212 1.11 99.91 989 -3.14921 1.49402 -31.048032576765 308.78038439721
36	787987 27449 117 542212 1.11 99.91 989 -3.60807 1.5 -29.805610392812 348.07501470131
37	815436 19919 117 542212 1.11 99.91 989 26.6094 36.1111 32546.3152 1073932.6602497
38	835355 23417 117 542212 1.11 99.91 989 30.2699 3281.45 1637401.7068 3577357323.4023
39	858772 22457 117 542212 1.11 99.91 989 242.45 252.35 241726.75000001 59094790.992499
40	881229 22539 118 542213 1.11 99.91 989 -1 77.7619 46499.72305 3269499.2719996
41	903768 22343 118 542213 1.11 99.91 989 -4.02369e-06 5.05078 379.54999182877 782.70283437803
42	926111 17512 118 542213 1.11 99.91 989 5 5 4945 24725
43	943623 22389 118 542213 1.11 99.91 989 -3.20588 1.31308 -1.0363267072133 182.72963614602
44	966012 26818 118 542213 1.11 99.91 989 -3.60808 1.5 -0.54839351439522 259.03625154237
45	992830 20162 118 542213 1.11 99.91 989 30.585 36.1111 35196.1933 1253950.7961148
46	1012992 23414 118 542213 1.11 99.91 989 24.2699 3540.28 1748697.7591 4118354982.3501
47	1036406 22457 118 542213 1.11 99.91 989 242.45 249.05 241677.25000001 59065768.152499
48	1058863 18962 119 542214 1.11 99.91 989 -1 26.8662 -655.13057 2015.8056225619
49	1077825 18506 119 542214 1.11 99.91 989 0 1.68152 1.6823030998471 2.827509563277
50	1096331 17512 119 542214 1.11 99.91 989 6 6 5934 35604
51	1113843 21669 119 542214 1.11 99.91 989 -3.17024 1.48975 8.9074825474648 149.69964485798
52	1135512 27644 119 542214 1.11 99.91 989 -3.60808 1.5 8.7502191306695 236.26957864693
53	1163156 19650 119 542214 1.11 99.91 989 32.4022 37.1033 36369.623 1337967.2990668
54	1182806 23430 119 542214 1.11 99.91 989 18.2699 3651.58 1805704.1095 4393962130.3198
55	1206236 22457 119 542214 1.11 99.91 989 242.45 249.05 243244.75 59828930.7725
56	1228693 21242 120 542215 1.11 99.91 989 -1 116.208 34373.45312 2676346.3195534
57	1249935 19348 120 542215 1.11 99.91 989 -7.15619e-06 2 768.52678032218 1276.4711221029
58	1269283 17512 120 542215 1.11 99.91 989 7 7 6923 48461
59	1286795 23561 120 542215 1.11 99.91 989 -2.66599 0.605218 -11.043111211511 43.250806951202
60	1310356 27307 120 542215 1.11 99.91 989 -3.60808 0.9413 -10.329666959754 99.921688034422
61	1337663 19990 120 542215 1.11 99.91 989 34.0591 36.1111 34701.0178 1217671.9285574
62	1357653 23423 120 542215 1.11 99.91 989 12.2699 3478.82 1730499.9007 4016336368.9859
63	1381076 22457 120 542215 1.11 99.91 989 242.45 252.35 244172.05 60300304.0925
64	1403533 40012 699 542272 1.249406540374 99.949411099022 988 0.099987520364 0.100006502555 98.800005079008 9.8800010400169
65	1443545 27266 699 542272 1.249406540374 99.949411099022 988 1 1 988 988
66	1470811 40012 699 542272 1.249406540374 99.949411099022 988 0.099987520364 0.100006502555 98.800005079008 9.8800010400169
67	1510823 27266 699 542272 1.249406540374 99.949411099022 988 1 1 988 988
68	1538089 40011 705 542278 1.249406560388 99.949411124031 988 0.099987520364 0.100006502555 98.800005084003 9.8800010410159
69	1578100 27272 705 542278 1.249406560388 99.949411124031 988 2 2 1976 3952
70	1605372 39996 711 542248 1.249406580402 99.949410246252 988 0.099987520364 0.10000650107 98.80000418621 9.8800008614573
71	1645368 27269 711 542248 1.249406580402 99.949410246252 988 3 3 2964 8892
72	1672637 39997 717 542284 1.249406600415 99.949411297323 988 0.099987520364 0.100006502555 98.800005217268 9.8800010676689
73	1712634 27264 717 542284 1.249406600415 99.949411297323 988 4 4 3952 15808
74	1739898 39996 723 542260 1.249406620429 99.949410433532 988 0.099987520364 0.100006501554 98.800004333463 9.8800008909079
75	1779894 27258 723 542260 1.249406620429 99.949410433532 988 5 5 4940 24700
76	1807152 40039 729 542254 1.249406640443 99.949410260025 988 0.099987520364 0.100006501811 98.800004139942 9.8800008522037
77	1847191 27296 729 542254 1.249406640443 99.949410260025 988 6 6 5928 35568
78	1874487 40016 735 542266 1.249406660457 99.9494106387 988 0.099987520364 0.100006501888 98.800004498603 9.8800009239359
79	1914503 27272 735 542266 1.249406660457 99.9494106387 988 7 7 6916 48412
80	1941775 40031 841 542402 1.280893700485 99.980898792312 988 0.099987520364 0.100006503222 98.800005612187 9.8800011466587
81	1981806 27283 841 542402 1.280893700485 99.980898792312 988 7 7 6916 48412
82	2009089 40018 908 542475 1.29643578054 99.996429157166 988 0.09998752036 0.100006505377 98.799993896986 9.8799988037523
83	2049107 27283 908 542475 1.29643578054 99.996429157166 988 3 3 2964 8892
84	2076390 39981 978 541993 1.300069840582 99.900069826948 987 0.099987520364 0.100006496835 98.700000506726 9.8700001255603
85	2116371 27262 978 541993 1.300069840582 99.900069826948 987 6 6 5922 35532
86	2143633 39924 1041 542038 1.300453920637 99.900493147985 986 0.099897963355 0.199958245879 98.699987747708 9.8899909595731
87	2183557 27221 1041 542038 1.300453920637 99.900493147985 986 2 2 1972 3944
88	2210778 39987 1107 542140 1.301721960665 99.90172402467 987 0.099640123745 0.100357120793 98.700002584365 9.8700007981594
89	2250765 27259 1107 542140 1.301721960665 99.90172402467 987 4 4 3948 15792
90	2278024 39989 1173 542188 1.304796980679 99.90479988806 987 0.099987520363 0.100009721929 98.700003427741 9.8700007100742
91	2318013 27257 1173 542188 1.304796980679 99.90479988806 987 5 5 4935 24675
92	2345270 1459 4785 542512 2 100 99 0 0 0 0
93	2346729 2733 4785 542512 2 100 99 0.021463436837 0.027137917076 2.47069015937 0.06167667638566
94	2349462 1459 4785 542512 2 100 99 0 0 0 0
95	2350921 1459 4786 542513 2 100 99 1 1 99 99
96	2352380 2734 4786 542513 2 100 99 0.021462456851 0.026840596497 2.470391445178 0.061660564739399
97	2355114 1459 4786 542513 2 100 99 0 0 0 0
98	2356573 1459 4787 542514 2 100 99 2 2 198 396
99	2358032 2733 4787 542514 2 100 99 0.021463476865 0.026841638209 2.470393460224 0.06166066211486
100	2360765 1558 4787 542514 2 100 99 0 0 0 0
101	2362323 1558 4788 542515 2 100 99 3 3 297 891
102	2363881 2824 4788 542515 2 100 99 0.021462496879 0.0268406787 2.470392002696 0.06166059260911
103	2366705 1558 4788 542515 2 100 99 0 0 0 0
104	2368263 1558 4789 542516 2 100 99 4 4 396 1584
105	2369821 2829 4789 542516 2 100 99 0.021462516893 0.026914758782 2.470465407016 0.061664540927965
106	2372650 1558 4789 542516 2 100 99 0 0 0 0
107	2374208 1558 4790 542517 2 100 99 5 5 495 2475
108	2375766 2828 4790 542517 2 100 99 0.021463536907 0.026913798812 2.470466311336 0.0616645752025
109	2378594 1558 4790 542517 2 100 99 0 0 0 0
110	2380152 1558 4791 542518 2 100 99 6 6 594 3564
111	2381710 2831 4791 542518 2 100 99 0.021463516893 0.026841798811 2.470393939638 0.061660686377167
112	2384541 1558 4791 542518 2 100 99 0 0 0 0
113	2386099 1558 4792 542519 2 100 99 7 7 693 4851
114	2387657 2837 4792 542519 2 100 99 0.021463496879 0.026842873277 2.470395186057 0.061660752787209
115	2390494 1558 4792 542519 2 100 99 0 0 0 0

