file 2381141 1720583521                                         
version 3
run BreakRanksNoGui-27-20240710-05:51:51-234360
attr configname BreakRanksNoGui
attr datetime 20240710-05:51:51
attr datetimef 20240710-055151
attr experiment BreakRanksNoGui
attr inifile omnetpp.ini
attr iterationvars "$nCars=8, $platoonSize=8, $nLanes=1, $ploegH=0.5, $controller=1, $headway=0.1, $leaderHeadway=1.2, $leaderSpeed=130, $breakRanksSafetyDistance=2, $minSpeed=120, $maxSpeed=140, $beaconInterval=0.1, $priority=4, $packetSize=200, $sController=\"CACC\", $0=2, $1=0"
attr iterationvarsd nCars=8/platoonSize=8/nLanes=1/ploegH=0.5/controller=1/headway=0.1/leaderHeadway=1.2/leaderSpeed=130/breakRanksSafetyDistance=2/minSpeed=120/maxSpeed=140/beaconInterval=0.1/priority=4/packetSize=200/sController=CACC/2/0
attr iterationvarsf nCars=8,platoonSize=8,nLanes=1,ploegH=0.5,controller=1,headway=0.1,leaderHeadway=1.2,leaderSpeed=130,breakRanksSafetyDistance=2,minSpeed=120,maxSpeed=140,beaconInterval=0.1,priority=4,packetSize=200,sController=CACC,2,0-
attr measurement "$nCars=8, $platoonSize=8, $nLanes=1, $ploegH=0.5, $controller=1, $headway=0.1, $leaderHeadway=1.2, $leaderSpeed=130, $breakRanksSafetyDistance=2, $minSpeed=120, $maxSpeed=140, $beaconInterval=0.1, $priority=4, $packetSize=200, $sController=\"CACC\", $0=2, $1=0"
attr network Highway
attr processid 234360
attr repetition 7
attr replication #7
attr resultdir results
attr runnumber 27
attr seedset 7
itervar beaconInterval 0.1
itervar breakRanksSafetyDistance 2
itervar controller 1
itervar headway 0.1
itervar leaderHeadway 1.2
itervar leaderSpeed 130
itervar maxSpeed 140
itervar minSpeed 120
itervar nCars 8
itervar nLanes 1
itervar packetSize 200
itervar platoonSize 8
itervar ploegH 0.5
itervar priority 4
itervar sController "\"CACC\""
config image-path ../../../veins/images
config repeat 10
config extends BreakRanks
config *.manager.command "\"sumo\""
config *.manager.ignoreGuiCommands true
config output-vector-file results/BreakRanks_1_0.1_130_2/result_7.vec
config output-scalar-file results/BreakRanks_1_0.1_130_2/result_7.sca
config extends Platooning
config *.node[*].scenario_type "\"BreakRanksScenario\""
config *.manager.command "\"sumo-gui\""
config *.node[*].scenario_type "\"SimpleScenario\""
config cmdenv-express-mode true
config cmdenv-autoflush true
config cmdenv-status-frequency 15s
config num-rngs 6
config network Highway
config debug-on-errors true
config print-undisposed true
config *.playgroundSizeX 65000m
config *.playgroundSizeY 25000m
config *.playgroundSizeZ 50m
config sim-time-limit "100 s"
config *.annotations.draw false
config *.obstacles.debug false
config *.world.useTorus false
config *.world.use2D false
config *.manager.updateInterval 0.01s
config *.manager.host "\"localhost\""
config *.manager.moduleType "\"org.car2x.plexe.PlatoonCar\""
config *.manager.moduleName "\"node\""
config *.manager.moduleDisplayString "\"\""
config *.manager.autoShutdown true
config *.manager.margin 25
config *.connectionManager.sendDirect true
config *.connectionManager.maxInterfDist 2600m
config *.connectionManager.drawMaxIntfDist false
config *.**.nic.mac1609_4.useServiceChannel false
config *.**.nic.mac1609_4.txPower 100mW
config *.**.nic.mac1609_4.bitrate 6Mbps
config *.**.nic.mac1609_4.useAcks true
config *.**.nic.mac1609_4.ackErrorRate 0.0
config *.**.nic.mac1609_4.frameErrorRate 0.0
config *.**.nic.phy80211p.minPowerLevel -94dBm
config *.**.nic.phy80211p.maxTXPower 100mW
config *.**.nic.phy80211p.useNoiseFloor true
config *.**.nic.phy80211p.noiseFloor -95dBm
config *.**.nic.phy80211p.decider "xmldoc(\"config.xml\")"
config *.**.nic.phy80211p.analogueModels "xmldoc(\"config.xml\")"
config *.**.nic.phy80211p.usePropagationDelay true
config *.node[*].mobility.x 0
config *.node[*].mobility.y 0
config *.node[*].mobility.z 1.895
config seed-set 7
config **.seed 7
config *.node[*].prot.rng-0 2
config *.node[*].appl.rng-0 3
config *.node[*].scenario.rng-0 4
config **.traffic.rng-0 5
config *.manager.configFile "\"./sumocfg/freeway.sumo.cfg\""
config *.manager.launchConfig "xmldoc(\"./sumocfg/freeway.launchd.xml\")"
config **.numberOfCars 8
config **.numberOfCarsPerPlatoon 8
config **.numberOfLanes 1
config *.node[*].helper_type "\"PositionHelper\""
config *.node[*].scenario.caccC1 0.5
config *.node[*].scenario.caccXi 1
config *.node[*].scenario.caccOmegaN "0.2 Hz"
config *.node[*].scenario.caccSpacing "2 m"
config *.node[*].scenario.engineTau "0.5 s"
config *.node[*].scenario.ploegH 0.5s
config *.node[*].scenario.ploegKp 0.2
config *.node[*].scenario.ploegKd 0.7
config *.node[*].scenario.useRealisticEngine false
config *.node[*].scenario.useControllerAcceleration true
config *.node[*].scenario.nLanes 1
config **.numericController 1
config **.headway 0.1s
config *.node[*].scenario.accHeadway 0.1s
config *.node[*].scenario.leaderHeadway 1.2s
config *.node[*].scenario.leaderSpeed 130kmph
config *.node[*].appl_type "\"SimplePlatooningApp\""
config *.node[*].appl.*.scalar-recording true
config *.node[*].appl.*.vector-recording true
config *.node[0].appl.breakRanksSafetyDistance 2m
config *.node[*].appl.minSpeed 120kmph
config *.node[*].appl.maxSpeed 140kmph
config *.node[*].protocol_type "\"SimplePlatooningBeaconing\""
config *.node[*].prot.*.scalar-recording true
config *.node[*].prot.*.vector-recording true
config *.node[*].prot.beaconingInterval 0.1s
config *.node[*].prot.priority 4
config *.node[*].prot.packetSize 200
config **.traffic_type "\"PlatoonsTrafficManager\""
config **.traffic.platoonInsertTime "1 s"
config **.traffic.platoonInsertSpeed 130kmph
config **.traffic.nCars 8
config **.traffic.platoonSize 8
config **.traffic.nLanes 1
config **.traffic.platooningVType "\"vtypeauto\""
config **.traffic.controller "\"CACC\""
config **.traffic.platoonInsertDistance 2m
config **.traffic.platoonInsertHeadway 0s
config **.traffic.platoonLeaderHeadway 1.2s
config **.scalar-recording false
config **.vector-recording false

vector 0 Highway.node[0].appl distance ETV
vector 1 Highway.node[0].appl relativeSpeed ETV
vector 2 Highway.node[0].appl nodeId ETV
vector 3 Highway.node[0].appl acceleration ETV
vector 4 Highway.node[0].appl controllerAcceleration ETV
vector 5 Highway.node[0].appl speed ETV
vector 6 Highway.node[0].appl posx ETV
vector 7 Highway.node[0].appl posy ETV
vector 8 Highway.node[1].appl distance ETV
vector 9 Highway.node[1].appl relativeSpeed ETV
vector 10 Highway.node[1].appl nodeId ETV
vector 11 Highway.node[1].appl acceleration ETV
vector 12 Highway.node[1].appl controllerAcceleration ETV
vector 13 Highway.node[1].appl speed ETV
vector 14 Highway.node[1].appl posx ETV
vector 15 Highway.node[1].appl posy ETV
vector 16 Highway.node[2].appl distance ETV
vector 17 Highway.node[2].appl relativeSpeed ETV
vector 18 Highway.node[2].appl nodeId ETV
vector 19 Highway.node[2].appl acceleration ETV
vector 20 Highway.node[2].appl controllerAcceleration ETV
vector 21 Highway.node[2].appl speed ETV
vector 22 Highway.node[2].appl posx ETV
vector 23 Highway.node[2].appl posy ETV
vector 24 Highway.node[3].appl distance ETV
vector 25 Highway.node[3].appl relativeSpeed ETV
vector 26 Highway.node[3].appl nodeId ETV
vector 27 Highway.node[3].appl acceleration ETV
vector 28 Highway.node[3].appl controllerAcceleration ETV
vector 29 Highway.node[3].appl speed ETV
vector 30 Highway.node[3].appl posx ETV
vector 31 Highway.node[3].appl posy ETV
vector 32 Highway.node[4].appl distance ETV
vector 33 Highway.node[4].appl relativeSpeed ETV
vector 34 Highway.node[4].appl nodeId ETV
vector 35 Highway.node[4].appl acceleration ETV
vector 36 Highway.node[4].appl controllerAcceleration ETV
vector 37 Highway.node[4].appl speed ETV
vector 38 Highway.node[4].appl posx ETV
vector 39 Highway.node[4].appl posy ETV
vector 40 Highway.node[5].appl distance ETV
vector 41 Highway.node[5].appl relativeSpeed ETV
vector 42 Highway.node[5].appl nodeId ETV
vector 43 Highway.node[5].appl acceleration ETV
vector 44 Highway.node[5].appl controllerAcceleration ETV
vector 45 Highway.node[5].appl speed ETV
vector 46 Highway.node[5].appl posx ETV
vector 47 Highway.node[5].appl posy ETV
vector 48 Highway.node[6].appl distance ETV
vector 49 Highway.node[6].appl relativeSpeed ETV
vector 50 Highway.node[6].appl nodeId ETV
vector 51 Highway.node[6].appl acceleration ETV
vector 52 Highway.node[6].appl controllerAcceleration ETV
vector 53 Highway.node[6].appl speed ETV
vector 54 Highway.node[6].appl posx ETV
vector 55 Highway.node[6].appl posy ETV
vector 56 Highway.node[7].appl distance ETV
vector 57 Highway.node[7].appl relativeSpeed ETV
vector 58 Highway.node[7].appl nodeId ETV
vector 59 Highway.node[7].appl acceleration ETV
vector 60 Highway.node[7].appl controllerAcceleration ETV
vector 61 Highway.node[7].appl speed ETV
vector 62 Highway.node[7].appl posx ETV
vector 63 Highway.node[7].appl posy ETV
vector 64 Highway.node[4].prot frontDelay ETV
vector 65 Highway.node[4].prot frontDelayId ETV
vector 66 Highway.node[3].prot frontDelay ETV
vector 67 Highway.node[3].prot frontDelayId ETV
vector 68 Highway.node[7].prot frontDelay ETV
vector 69 Highway.node[7].prot frontDelayId ETV
vector 70 Highway.node[2].prot frontDelay ETV
vector 71 Highway.node[2].prot frontDelayId ETV
vector 72 Highway.node[6].prot frontDelay ETV
vector 73 Highway.node[6].prot frontDelayId ETV
vector 74 Highway.node[5].prot frontDelay ETV
vector 75 Highway.node[5].prot frontDelayId ETV
vector 76 Highway.node[1].prot leaderDelay ETV
vector 77 Highway.node[1].prot leaderDelayId ETV
vector 78 Highway.node[1].prot frontDelay ETV
vector 79 Highway.node[1].prot frontDelayId ETV
vector 80 Highway.node[2].prot leaderDelay ETV
vector 81 Highway.node[2].prot leaderDelayId ETV
vector 82 Highway.node[3].prot leaderDelay ETV
vector 83 Highway.node[3].prot leaderDelayId ETV
vector 84 Highway.node[4].prot leaderDelay ETV
vector 85 Highway.node[4].prot leaderDelayId ETV
vector 86 Highway.node[5].prot leaderDelay ETV
vector 87 Highway.node[5].prot leaderDelayId ETV
vector 88 Highway.node[6].prot leaderDelay ETV
vector 89 Highway.node[6].prot leaderDelayId ETV
vector 90 Highway.node[7].prot leaderDelay ETV
vector 91 Highway.node[7].prot leaderDelayId ETV
vector 92 Highway.node[0].prot nodeId ETV
vector 93 Highway.node[0].prot busyTime ETV
vector 94 Highway.node[0].prot collisions ETV
vector 95 Highway.node[1].prot nodeId ETV
vector 96 Highway.node[1].prot busyTime ETV
vector 97 Highway.node[1].prot collisions ETV
vector 98 Highway.node[2].prot nodeId ETV
vector 99 Highway.node[2].prot busyTime ETV
vector 100 Highway.node[2].prot collisions ETV
vector 101 Highway.node[3].prot nodeId ETV
vector 102 Highway.node[3].prot busyTime ETV
vector 103 Highway.node[3].prot collisions ETV
vector 104 Highway.node[4].prot nodeId ETV
vector 105 Highway.node[4].prot busyTime ETV
vector 106 Highway.node[4].prot collisions ETV
vector 107 Highway.node[5].prot nodeId ETV
vector 108 Highway.node[5].prot busyTime ETV
vector 109 Highway.node[5].prot collisions ETV
vector 110 Highway.node[6].prot nodeId ETV
vector 111 Highway.node[6].prot busyTime ETV
vector 112 Highway.node[6].prot collisions ETV
vector 113 Highway.node[7].prot nodeId ETV
vector 114 Highway.node[7].prot busyTime ETV
vector 115 Highway.node[7].prot collisions ETV
0	11185 17512 113 542089 1.11 99.91 989 -1 -1 -989 989
1	28697 16523 113 542089 1.11 99.91 989 0 0 0 0
2	45220 16523 113 542089 1.11 99.91 989 0 0 0 0
3	61743 18811 113 542089 1.11 99.91 989 -3.14892e-05 0.000707784 0.010991577126781 6.0508064149601e-06
4	80554 26469 113 542089 1.11 99.91 989 -4.89399e-05 0.00109259 0.010614843047836 8.6815283230331e-06
5	107023 22450 113 542089 1.11 99.91 989 36.11 36.1111 35713.866699999 1289666.6073546
6	129473 22345 113 542089 1.11 99.91 989 51.5199 3619.3 1815217.7308 4382871342.8188
7	151818 21468 113 542089 1.11 99.91 989 242.45 242.45 239783.05 58135400.472499
8	173286 17924 114 542090 1.11 99.91 989 -1 2.0003 -718.97853 1259.0858857771
9	191210 17443 114 542090 1.11 99.91 989 -2.36679e-05 0.000135767 0.002572557748 2.8318437151517e-07
10	208653 17512 114 542090 1.11 99.91 989 1 1 989 989
11	226165 21185 114 542090 1.11 99.91 989 -0.083077 0.00370923 -1.067823362668 0.071964913797578
12	247350 28065 114 542090 1.11 99.91 989 -0.104496 0.00576375 -0.70025218561235 0.054861452154899
13	275415 19295 114 542090 1.11 99.91 989 35.9942 36.1111 35614.6859 1282514.5463474
14	294710 23431 114 542090 1.11 99.91 989 45.5199 3603.38 1804854.5736 4338649877.8562
15	318141 22457 114 542090 1.11 99.91 989 242.45 245.75 242749.75 59583743.4125
16	340598 23306 115 542091 1.11 99.91 989 2 50.1535 37878.85019 1659274.7262108
17	363904 23603 115 542091 1.11 99.91 989 0 3.1981 421.58759654867 657.57430631186
18	387507 17512 115 542091 1.11 99.91 989 2 2 1978 3956
19	405019 23571 115 542091 1.11 99.91 989 -2.02228 0.353913 -1.044857606631 54.295811819996
20	428590 26895 115 542091 1.11 99.91 989 -3.08597 0.399174 0.35014434713668 75.376385954464
21	455485 20876 115 542091 1.11 99.91 989 32.913 36.1111 35292.2775 1259876.08318
22	476361 23403 115 542091 1.11 99.91 989 39.5199 3565.14 1772841.736 4206584959.593
23	499764 22457 115 542091 1.11 99.91 989 242.45 242.45 239783.05 58135400.472499
24	522221 23335 116 542092 1.11 99.91 989 2 150.881 65128.89206 6144624.2116114
25	545556 20915 116 542092 1.11 99.91 989 -2.63739e-07 3.57768 1620.8119980245 3174.1883605024
26	566471 17512 116 542092 1.11 99.91 989 3 3 2967 8901
27	583983 22182 116 542092 1.11 99.91 989 -2.88427 0.676212 -21.041089536264 164.73152560591
28	606165 26993 116 542092 1.11 99.91 989 -3.60523 0.726201 -19.474721593732 199.16082439473
29	633158 19993 116 542092 1.11 99.91 989 29.6066 36.1111 33540.465 1138751.0886118
30	653151 23418 116 542092 1.11 99.91 989 33.5199 3384.06 1689015.007 3807368243.8875
31	676569 22457 116 542092 1.11 99.91 989 242.45 242.45 239783.05 58135400.472499
32	699026 23350 117 542093 1.11 99.91 989 2 140.178 63586.78075 5462866.3837364
33	722376 19810 117 542093 1.11 99.91 989 -4.35878e-07 7.33674 1141.277718559 2548.8163981601
34	742186 17512 117 542093 1.11 99.91 989 4 4 3956 15824
35	759698 22058 117 542093 1.11 99.91 989 -3.14921 1.49991 -11.040850951263 349.17498342617
36	781756 27337 117 542093 1.11 99.91 989 -3.60808 1.5 -9.1872094987275 391.58756762842
37	809093 19912 117 542093 1.11 99.91 989 26.6616 36.1111 34221.4099 1187209.2141475
38	829005 23423 117 542093 1.11 99.91 989 27.5199 3446.11 1704819.9542 3907149672.5129
39	852428 22457 117 542093 1.11 99.91 989 242.45 249.05 244290.85 60350200.092501
40	874885 20062 118 542094 1.11 99.91 989 -1 161.367 23845.032326 3266989.3866617
41	894947 18772 118 542094 1.11 99.91 989 -7.43735e-07 10.3713 306.9396718312 1284.4883741724
42	913719 17512 118 542094 1.11 99.91 989 5 5 4945 24725
43	931231 22054 118 542094 1.11 99.91 989 -3.20588 1.49998 -11.026240463989 415.78286251125
44	953285 27291 118 542094 1.11 99.91 989 -3.60808 1.5 -8.6946903050663 479.11403201631
45	980576 19901 118 542094 1.11 99.91 989 25.6867 36.1111 34200.5174 1186088.1985383
46	1000477 23429 118 542094 1.11 99.91 989 21.5199 3438.02 1697086.2659 3879762907.2436
47	1023906 22457 118 542094 1.11 99.91 989 242.45 252.35 247386.25 61893173.172501
48	1046363 23365 119 542095 1.11 99.91 989 2 190.021 83678.68868 9896161.0338067
49	1069728 20025 119 542095 1.11 99.91 989 -1.80254e-06 2.89743 1661.763472173 3226.2574442651
50	1089753 17512 119 542095 1.11 99.91 989 6 6 5934 35604
51	1107265 27250 119 542095 1.11 99.91 989 -2.95237 0.57608 -21.063296771976 69.98383237241
52	1134515 27310 119 542095 1.11 99.91 989 -3.60808 0.894714 -17.936804249043 122.67984329523
53	1161825 19984 119 542095 1.11 99.91 989 33.1048 36.1111 33811.4715 1156326.4547189
54	1181809 23420 119 542095 1.11 99.91 989 15.5199 3393.16 1694131.8967 3836364499.6988
55	1205229 22457 119 542095 1.11 99.91 989 242.45 245.75 242720.05 59569243.8725
56	1227686 18778 120 542096 1.11 99.91 989 -1 2.00002 -703.99894 1274.0042400194
57	1246464 18450 120 542096 1.11 99.91 989 -4.60759e-06 7.74439e-06 0.00020850845007 1.4732352229331e-09
58	1264914 17512 120 542096 1.11 99.91 989 7 7 6923 48461
59	1282426 21790 120 542096 1.11 99.91 989 -2.27629 0.842289 -1.0341786755871 32.287965152317
60	1304216 27906 120 542096 1.11 99.91 989 -3.60808 1.30759 1.8034575096765 84.579193168144
61	1332122 19485 120 542096 1.11 99.91 989 34.6913 36.1111 35593.3409 1280998.5181267
62	1351607 23428 120 542096 1.11 99.91 989 9.5199 3565.25 1767361.4451 4202532132.9869
63	1375035 22457 120 542096 1.11 99.91 989 242.45 249.05 245683.45 61035447.072502
64	1397492 40030 702 542138 1.214462500346 99.914471322275 988 0.099987480335 0.100003842981 98.800009302261 9.8800018822419
65	1437522 27284 702 542138 1.214462500346 99.914471322275 988 4 4 3952 15808
66	1464806 40034 769 542229 1.22169752036 99.921694323528 988 0.099987480333 0.100003843983 98.7999972835 9.8799994786001
67	1504840 27288 769 542229 1.22169752036 99.921694323528 988 3 3 2964 8892
68	1532128 40003 903 542351 1.247009640443 99.947006890042 988 0.099987480334 0.10000384124 98.799997729931 9.87999956787
69	1572131 27263 903 542351 1.247009640443 99.947006890042 988 7 7 6916 48412
70	1599394 40036 970 542406 1.254140740512 99.954138145172 988 0.099987480334 0.10000384124 98.799997884992 9.879999598877
71	1639430 27290 970 542406 1.254140740512 99.954138145172 988 2 2 1976 3952
72	1666720 40059 1038 542468 1.273478820567 99.973476718764 988 0.099987480334 0.100003845317 98.799998378529 9.8799996976038
73	1706779 27298 1038 542468 1.273478820567 99.973476718764 988 6 6 5928 35568
74	1734077 40022 1105 542529 1.285042840581 99.985040627196 988 0.099987480333 0.100006603206 98.799998266947 9.8799996754583
75	1774099 27280 1105 542529 1.285042840581 99.985040627196 988 5 5 4940 24700
76	1801379 40029 1166 542596 1.293967920636 99.993966230292 988 0.099987480334 0.10000384198 98.799998789988 9.8799997798768
77	1841408 27274 1166 542596 1.293967920636 99.993966230292 988 1 1 988 988
78	1868682 40029 1166 542596 1.293967920636 99.993966230292 988 0.099987480334 0.10000384198 98.799998789988 9.8799997798768
79	1908711 27274 1166 542596 1.293967920636 99.993966230292 988 1 1 988 988
80	1935985 40020 1172 542602 1.29396794065 99.993966356721 988 0.099987480334 0.100003841981 98.799998896403 9.8799998011599
81	1976005 27276 1172 542602 1.29396794065 99.993966356721 988 2 2 1976 3952
82	2003281 40023 1178 542632 1.293967960664 99.993966961343 988 0.099987480334 0.100003842648 98.799999481011 9.8799999180814
83	2043304 27282 1178 542632 1.293967960664 99.993966961343 988 3 3 2964 8892
84	2070586 39987 1184 542614 1.293967980677 99.993966754085 988 0.099987480334 0.100003842315 98.79999925374 9.8799998726273
85	2110573 27258 1184 542614 1.293967980677 99.993966754085 988 4 4 3952 15808
86	2137831 40006 1190 542620 1.293968000691 99.993966781168 988 0.099987480334 0.100003842315 98.799999260809 9.8799998740411
87	2177837 27272 1190 542620 1.293968000691 99.993966781168 988 5 5 4940 24700
88	2205109 40036 1196 542626 1.293968020705 99.993966931067 988 0.099987480334 0.100003842648 98.799999390694 9.8799999000181
89	2245145 27279 1196 542626 1.293968020705 99.993966931067 988 6 6 5928 35568
90	2272424 40022 1202 542608 1.293968040719 99.993966357705 988 0.099987480334 0.100003841981 98.799998797318 9.8799997813429
91	2312446 27280 1202 542608 1.293968040719 99.993966357705 988 7 7 6916 48412
92	2339726 1459 5026 542634 2 100 99 0 0 0 0
93	2341185 2061 5026 542634 2 100 99 0.022473 0.027091360966 2.471654360966 0.06171856486799
94	2343246 1459 5026 542634 2 100 99 0 0 0 0
95	2344705 1459 5027 542635 2 100 99 1 1 99 99
96	2346164 2060 5027 542635 2 100 99 0.022473 0.02679424017 2.47135724017 0.061702554335288
97	2348224 1459 5027 542635 2 100 99 0 0 0 0
98	2349683 1459 5028 542636 2 100 99 2 2 198 396
99	2351142 2061 5028 542636 2 100 99 0.022473 0.026794280198 2.471357280198 0.061702556480329
100	2353203 1558 5028 542636 2 100 99 0 0 0 0
101	2354761 1558 5029 542637 2 100 99 3 3 297 891
102	2356319 2160 5029 542637 2 100 99 0.022473 0.026794200142 2.471357200142 0.061702552190249
103	2358479 1558 5029 542637 2 100 99 0 0 0 0
104	2360037 1558 5030 542638 2 100 99 4 4 396 1584
105	2361595 2160 5030 542638 2 100 99 0.022473 0.026860360258 2.471423360258 0.061706101982189
106	2363755 1558 5030 542638 2 100 99 0 0 0 0
107	2365313 1558 5031 542639 2 100 99 5 5 495 2475
108	2366871 2159 5031 542639 2 100 99 0.022473 0.02679424017 2.47135724017 0.061702554335288
109	2369030 1558 5031 542639 2 100 99 0 0 0 0
110	2370588 1558 5032 542640 2 100 99 6 6 594 3564
111	2372146 2160 5032 542640 2 100 99 0.022473 0.026827360256 2.471390360256 0.061704330287305
112	2374306 1558 5032 542640 2 100 99 0 0 0 0
113	2375864 1558 5033 542641 2 100 99 7 7 693 4851
114	2377422 2160 5033 542641 2 100 99 0.022473 0.026794280198 2.471357280198 0.061702556480329
115	2379582 1558 5033 542641 2 100 99 0 0 0 0

