file 2401586 1720583480                                         
version 3
run BreakRanksNoGui-23-20240710-05:51:11-234317
attr configname BreakRanksNoGui
attr datetime 20240710-05:51:11
attr datetimef 20240710-055111
attr experiment BreakRanksNoGui
attr inifile omnetpp.ini
attr iterationvars "$nCars=8, $platoonSize=8, $nLanes=1, $ploegH=0.5, $controller=1, $headway=0.1, $leaderHeadway=1.2, $leaderSpeed=130, $breakRanksSafetyDistance=2, $minSpeed=120, $maxSpeed=140, $beaconInterval=0.1, $priority=4, $packetSize=200, $sController=\"CACC\", $0=2, $1=0"
attr iterationvarsd nCars=8/platoonSize=8/nLanes=1/ploegH=0.5/controller=1/headway=0.1/leaderHeadway=1.2/leaderSpeed=130/breakRanksSafetyDistance=2/minSpeed=120/maxSpeed=140/beaconInterval=0.1/priority=4/packetSize=200/sController=CACC/2/0
attr iterationvarsf nCars=8,platoonSize=8,nLanes=1,ploegH=0.5,controller=1,headway=0.1,leaderHeadway=1.2,leaderSpeed=130,breakRanksSafetyDistance=2,minSpeed=120,maxSpeed=140,beaconInterval=0.1,priority=4,packetSize=200,sController=CACC,2,0-
attr measurement "$nCars=8, $platoonSize=8, $nLanes=1, $ploegH=0.5, $controller=1, $headway=0.1, $leaderHeadway=1.2, $leaderSpeed=130, $breakRanksSafetyDistance=2, $minSpeed=120, $maxSpeed=140, $beaconInterval=0.1, $priority=4, $packetSize=200, $sController=\"CACC\", $0=2, $1=0"
attr network Highway
attr processid 234317
attr repetition 3
attr replication #3
attr resultdir results
attr runnumber 23
attr seedset 3
itervar beaconInterval 0.1
itervar breakRanksSafetyDistance 2
itervar controller 1
itervar headway 0.1
itervar leaderHeadway 1.2
itervar leaderSpeed 130
itervar maxSpeed 140
itervar minSpeed 120
itervar nCars 8
itervar nLanes 1
itervar packetSize 200
itervar platoonSize 8
itervar ploegH 0.5
itervar priority 4
itervar sController "\"CACC\""
config image-path ../../../veins/images
config repeat 10
config extends BreakRanks
config *.manager.command "\"sumo\""
config *.manager.ignoreGuiCommands true
config output-vector-file results/BreakRanks_1_0.1_130_2/result_3.vec
config output-scalar-file results/BreakRanks_1_0.1_130_2/result_3.sca
config extends Platooning
config *.node[*].scenario_type "\"BreakRanksScenario\""
config *.manager.command "\"sumo-gui\""
config *.node[*].scenario_type "\"SimpleScenario\""
config cmdenv-express-mode true
config cmdenv-autoflush true
config cmdenv-status-frequency 15s
config num-rngs 6
config network Highway
config debug-on-errors true
config print-undisposed true
config *.playgroundSizeX 65000m
config *.playgroundSizeY 25000m
config *.playgroundSizeZ 50m
config sim-time-limit "100 s"
config *.annotations.draw false
config *.obstacles.debug false
config *.world.useTorus false
config *.world.use2D false
config *.manager.updateInterval 0.01s
config *.manager.host "\"localhost\""
config *.manager.moduleType "\"org.car2x.plexe.PlatoonCar\""
config *.manager.moduleName "\"node\""
config *.manager.moduleDisplayString "\"\""
config *.manager.autoShutdown true
config *.manager.margin 25
config *.connectionManager.sendDirect true
config *.connectionManager.maxInterfDist 2600m
config *.connectionManager.drawMaxIntfDist false
config *.**.nic.mac1609_4.useServiceChannel false
config *.**.nic.mac1609_4.txPower 100mW
config *.**.nic.mac1609_4.bitrate 6Mbps
config *.**.nic.mac1609_4.useAcks true
config *.**.nic.mac1609_4.ackErrorRate 0.0
config *.**.nic.mac1609_4.frameErrorRate 0.0
config *.**.nic.phy80211p.minPowerLevel -94dBm
config *.**.nic.phy80211p.maxTXPower 100mW
config *.**.nic.phy80211p.useNoiseFloor true
config *.**.nic.phy80211p.noiseFloor -95dBm
config *.**.nic.phy80211p.decider "xmldoc(\"config.xml\")"
config *.**.nic.phy80211p.analogueModels "xmldoc(\"config.xml\")"
config *.**.nic.phy80211p.usePropagationDelay true
config *.node[*].mobility.x 0
config *.node[*].mobility.y 0
config *.node[*].mobility.z 1.895
config seed-set 3
config **.seed 3
config *.node[*].prot.rng-0 2
config *.node[*].appl.rng-0 3
config *.node[*].scenario.rng-0 4
config **.traffic.rng-0 5
config *.manager.configFile "\"./sumocfg/freeway.sumo.cfg\""
config *.manager.launchConfig "xmldoc(\"./sumocfg/freeway.launchd.xml\")"
config **.numberOfCars 8
config **.numberOfCarsPerPlatoon 8
config **.numberOfLanes 1
config *.node[*].helper_type "\"PositionHelper\""
config *.node[*].scenario.caccC1 0.5
config *.node[*].scenario.caccXi 1
config *.node[*].scenario.caccOmegaN "0.2 Hz"
config *.node[*].scenario.caccSpacing "2 m"
config *.node[*].scenario.engineTau "0.5 s"
config *.node[*].scenario.ploegH 0.5s
config *.node[*].scenario.ploegKp 0.2
config *.node[*].scenario.ploegKd 0.7
config *.node[*].scenario.useRealisticEngine false
config *.node[*].scenario.useControllerAcceleration true
config *.node[*].scenario.nLanes 1
config **.numericController 1
config **.headway 0.1s
config *.node[*].scenario.accHeadway 0.1s
config *.node[*].scenario.leaderHeadway 1.2s
config *.node[*].scenario.leaderSpeed 130kmph
config *.node[*].appl_type "\"SimplePlatooningApp\""
config *.node[*].appl.*.scalar-recording true
config *.node[*].appl.*.vector-recording true
config *.node[0].appl.breakRanksSafetyDistance 2m
config *.node[*].appl.minSpeed 120kmph
config *.node[*].appl.maxSpeed 140kmph
config *.node[*].protocol_type "\"SimplePlatooningBeaconing\""
config *.node[*].prot.*.scalar-recording true
config *.node[*].prot.*.vector-recording true
config *.node[*].prot.beaconingInterval 0.1s
config *.node[*].prot.priority 4
config *.node[*].prot.packetSize 200
config **.traffic_type "\"PlatoonsTrafficManager\""
config **.traffic.platoonInsertTime "1 s"
config **.traffic.platoonInsertSpeed 130kmph
config **.traffic.nCars 8
config **.traffic.platoonSize 8
config **.traffic.nLanes 1
config **.traffic.platooningVType "\"vtypeauto\""
config **.traffic.controller "\"CACC\""
config **.traffic.platoonInsertDistance 2m
config **.traffic.platoonInsertHeadway 0s
config **.traffic.platoonLeaderHeadway 1.2s
config **.scalar-recording false
config **.vector-recording false

vector 0 Highway.node[0].appl distance ETV
vector 1 Highway.node[0].appl relativeSpeed ETV
vector 2 Highway.node[0].appl nodeId ETV
vector 3 Highway.node[0].appl acceleration ETV
vector 4 Highway.node[0].appl controllerAcceleration ETV
vector 5 Highway.node[0].appl speed ETV
vector 6 Highway.node[0].appl posx ETV
vector 7 Highway.node[0].appl posy ETV
vector 8 Highway.node[1].appl distance ETV
vector 9 Highway.node[1].appl relativeSpeed ETV
vector 10 Highway.node[1].appl nodeId ETV
vector 11 Highway.node[1].appl acceleration ETV
vector 12 Highway.node[1].appl controllerAcceleration ETV
vector 13 Highway.node[1].appl speed ETV
vector 14 Highway.node[1].appl posx ETV
vector 15 Highway.node[1].appl posy ETV
vector 16 Highway.node[2].appl distance ETV
vector 17 Highway.node[2].appl relativeSpeed ETV
vector 18 Highway.node[2].appl nodeId ETV
vector 19 Highway.node[2].appl acceleration ETV
vector 20 Highway.node[2].appl controllerAcceleration ETV
vector 21 Highway.node[2].appl speed ETV
vector 22 Highway.node[2].appl posx ETV
vector 23 Highway.node[2].appl posy ETV
vector 24 Highway.node[3].appl distance ETV
vector 25 Highway.node[3].appl relativeSpeed ETV
vector 26 Highway.node[3].appl nodeId ETV
vector 27 Highway.node[3].appl acceleration ETV
vector 28 Highway.node[3].appl controllerAcceleration ETV
vector 29 Highway.node[3].appl speed ETV
vector 30 Highway.node[3].appl posx ETV
vector 31 Highway.node[3].appl posy ETV
vector 32 Highway.node[4].appl distance ETV
vector 33 Highway.node[4].appl relativeSpeed ETV
vector 34 Highway.node[4].appl nodeId ETV
vector 35 Highway.node[4].appl acceleration ETV
vector 36 Highway.node[4].appl controllerAcceleration ETV
vector 37 Highway.node[4].appl speed ETV
vector 38 Highway.node[4].appl posx ETV
vector 39 Highway.node[4].appl posy ETV
vector 40 Highway.node[5].appl distance ETV
vector 41 Highway.node[5].appl relativeSpeed ETV
vector 42 Highway.node[5].appl nodeId ETV
vector 43 Highway.node[5].appl acceleration ETV
vector 44 Highway.node[5].appl controllerAcceleration ETV
vector 45 Highway.node[5].appl speed ETV
vector 46 Highway.node[5].appl posx ETV
vector 47 Highway.node[5].appl posy ETV
vector 48 Highway.node[6].appl distance ETV
vector 49 Highway.node[6].appl relativeSpeed ETV
vector 50 Highway.node[6].appl nodeId ETV
vector 51 Highway.node[6].appl acceleration ETV
vector 52 Highway.node[6].appl controllerAcceleration ETV
vector 53 Highway.node[6].appl speed ETV
vector 54 Highway.node[6].appl posx ETV
vector 55 Highway.node[6].appl posy ETV
vector 56 Highway.node[7].appl distance ETV
vector 57 Highway.node[7].appl relativeSpeed ETV
vector 58 Highway.node[7].appl nodeId ETV
vector 59 Highway.node[7].appl acceleration ETV
vector 60 Highway.node[7].appl controllerAcceleration ETV
vector 61 Highway.node[7].appl speed ETV
vector 62 Highway.node[7].appl posx ETV
vector 63 Highway.node[7].appl posy ETV
vector 64 Highway.node[1].prot leaderDelay ETV
vector 65 Highway.node[1].prot leaderDelayId ETV
vector 66 Highway.node[1].prot frontDelay ETV
vector 67 Highway.node[1].prot frontDelayId ETV
vector 68 Highway.node[2].prot leaderDelay ETV
vector 69 Highway.node[2].prot leaderDelayId ETV
vector 70 Highway.node[3].prot leaderDelay ETV
vector 71 Highway.node[3].prot leaderDelayId ETV
vector 72 Highway.node[4].prot leaderDelay ETV
vector 73 Highway.node[4].prot leaderDelayId ETV
vector 74 Highway.node[5].prot leaderDelay ETV
vector 75 Highway.node[5].prot leaderDelayId ETV
vector 76 Highway.node[6].prot leaderDelay ETV
vector 77 Highway.node[6].prot leaderDelayId ETV
vector 78 Highway.node[7].prot leaderDelay ETV
vector 79 Highway.node[7].prot leaderDelayId ETV
vector 80 Highway.node[7].prot frontDelay ETV
vector 81 Highway.node[7].prot frontDelayId ETV
vector 82 Highway.node[2].prot frontDelay ETV
vector 83 Highway.node[2].prot frontDelayId ETV
vector 84 Highway.node[5].prot frontDelay ETV
vector 85 Highway.node[5].prot frontDelayId ETV
vector 86 Highway.node[3].prot frontDelay ETV
vector 87 Highway.node[3].prot frontDelayId ETV
vector 88 Highway.node[6].prot frontDelay ETV
vector 89 Highway.node[6].prot frontDelayId ETV
vector 90 Highway.node[4].prot frontDelay ETV
vector 91 Highway.node[4].prot frontDelayId ETV
vector 92 Highway.node[0].prot nodeId ETV
vector 93 Highway.node[0].prot busyTime ETV
vector 94 Highway.node[0].prot collisions ETV
vector 95 Highway.node[1].prot nodeId ETV
vector 96 Highway.node[1].prot busyTime ETV
vector 97 Highway.node[1].prot collisions ETV
vector 98 Highway.node[2].prot nodeId ETV
vector 99 Highway.node[2].prot busyTime ETV
vector 100 Highway.node[2].prot collisions ETV
vector 101 Highway.node[3].prot nodeId ETV
vector 102 Highway.node[3].prot busyTime ETV
vector 103 Highway.node[3].prot collisions ETV
vector 104 Highway.node[4].prot nodeId ETV
vector 105 Highway.node[4].prot busyTime ETV
vector 106 Highway.node[4].prot collisions ETV
vector 107 Highway.node[5].prot nodeId ETV
vector 108 Highway.node[5].prot busyTime ETV
vector 109 Highway.node[5].prot collisions ETV
vector 110 Highway.node[6].prot nodeId ETV
vector 111 Highway.node[6].prot busyTime ETV
vector 112 Highway.node[6].prot collisions ETV
vector 113 Highway.node[7].prot nodeId ETV
vector 114 Highway.node[7].prot busyTime ETV
vector 115 Highway.node[7].prot collisions ETV
0	11185 19741 113 542061 1.11 99.91 989 -1 114.091 31867.7756 2588023.0695575
1	30926 18798 113 542061 1.11 99.91 989 0 1.8889 859.4495 1623.41416055
2	49724 16523 113 542061 1.11 99.91 989 0 0 0 0
3	66247 18811 113 542061 1.11 99.91 989 -3.14892e-05 0.000707784 0.010991577126781 6.0508064149601e-06
4	85058 26469 113 542061 1.11 99.91 989 -4.89399e-05 0.00109259 0.010614843047836 8.6815283230331e-06
5	111527 22450 113 542061 1.11 99.91 989 36.11 36.1111 35713.866699999 1289666.6073546
6	133977 22346 113 542061 1.11 99.91 989 59.5999 3627.38 1823208.8511 4412269831.4553
7	156323 21468 113 542061 1.11 99.91 989 242.45 242.45 239783.05 58135400.472499
8	177791 20282 114 542062 1.11 99.91 989 -1 167.722 35858.94533 3492976.8908735
9	198073 18324 114 542062 1.11 99.91 989 -1.82116e-05 5 1680.2434665565 7562.6686533715
10	216397 17512 114 542062 1.11 99.91 989 1 1 989 989
11	233909 23631 114 542062 1.11 99.91 989 -1.43406 0.0672049 -31.057875307455 35.562154656629
12	257540 27258 114 542062 1.11 99.91 989 -1.5 0.099156 -30.178886890065 42.606515120458
13	284798 19967 114 542062 1.11 99.91 989 32.8922 36.1111 32958.7574 1099228.7797926
14	304765 23420 114 542062 1.11 99.91 989 53.5999 3346.02 1695431.1457 3789389731.4551
15	328185 22457 114 542062 1.11 99.91 989 242.45 245.75 242749.75 59583743.4125
16	350642 23228 115 542063 1.11 99.91 989 2 199.511 94220.9796 12555318.192735
17	373870 23038 115 542063 1.11 99.91 989 0 3.19811 1916.1625544625 4132.9425029836
18	396908 17512 115 542063 1.11 99.91 989 2 2 1978 3956
19	414420 21613 115 542063 1.11 99.91 989 -2.02229 0.353913 -21.044876737035 51.990424644765
20	436033 27238 115 542063 1.11 99.91 989 -3.08597 0.399175 -19.648926603674 73.147795039886
21	463271 19575 115 542063 1.11 99.91 989 32.913 36.1111 33797.7022 1155409.9365114
22	482846 23421 115 542063 1.11 99.91 989 47.5999 3423.86 1724488.6022 3940756594.5898
23	506267 22457 115 542063 1.11 99.91 989 242.45 242.45 239783.05 58135400.472499
24	528724 23276 116 542064 1.11 99.91 989 2 42.7936 33836.82072 1348359.4177593
25	552000 25320 116 542064 1.11 99.91 989 -2.76096e-06 3.57768 407.93627456904 791.24292317346
26	577320 17512 116 542064 1.11 99.91 989 3 3 2967 8901
27	594832 26136 116 542064 1.11 99.91 989 -2.88427 0.676212 -21.047387739397 160.11533431147
28	620968 26142 116 542064 1.11 99.91 989 -3.60524 0.726201 -19.481274967131 194.57478234759
29	647110 23334 116 542064 1.11 99.91 989 29.6066 36.1111 33389.766 1128649.00716
30	670444 23330 116 542064 1.11 99.91 989 41.5999 3377.07 1686699.0286 3789407576.8546
31	693774 22457 116 542064 1.11 99.91 989 242.45 242.45 239783.05 58135400.472499
32	716231 22287 117 542065 1.11 99.91 989 -1 57.5537 25297.82558 1055130.5673584
33	738518 23166 117 542065 1.11 99.91 989 -1.31493 3.51461 354.46347397828 948.11152369733
34	761684 17512 117 542065 1.11 99.91 989 4 4 3956 15824
35	779196 25770 117 542065 1.11 99.91 989 -3.14921 1.25442 -1.0205627803815 298.28680991615
36	804966 25735 117 542065 1.11 99.91 989 -3.60807 1.5 0.25843910103286 344.85742047354
37	830701 22819 117 542065 1.11 99.91 989 26.6616 36.1111 33716.3669 1154211.4792374
38	853520 23361 117 542065 1.11 99.91 989 35.5999 3403.63 1668747.885 3743511944.3918
39	876881 22457 117 542065 1.11 99.91 989 242.45 252.35 245558.05 60988253.1125
40	899338 20050 118 542066 1.11 99.91 989 -1 39.7216 7383.40297 275344.61958643
41	919388 20067 118 542066 1.11 99.91 989 -2.37373e-06 2.89966 176.8576031057 226.2302616192
42	939455 17512 118 542066 1.11 99.91 989 5 5 4945 24725
43	956967 23362 118 542066 1.11 99.91 989 -3.20588 1.27743 -11.012507321455 175.21258408083
44	980329 27062 118 542066 1.11 99.91 989 -3.60808 1.5 -9.9571119266252 253.74750486082
45	1007391 20670 118 542066 1.11 99.91 989 30.585 36.1111 34046.3263 1173727.9888117
46	1028061 23399 118 542066 1.11 99.91 989 29.5999 3430.68 1696673.7661 3862874910.9123
47	1051460 22457 118 542066 1.11 99.91 989 242.45 252.35 246320.35 61360582.212501
48	1073917 19148 119 542067 1.11 99.91 989 -1 41.568 1171.98634 57681.526596997
49	1093065 18835 119 542067 1.11 99.91 989 -2.39407e-05 4.0001 237.66304961679 946.67621263074
50	1111900 17512 119 542067 1.11 99.91 989 6 6 5934 35604
51	1129412 21641 119 542067 1.11 99.91 989 -3.17024 1.0504 -21.094668355578 106.37008123546
52	1151053 27850 119 542067 1.11 99.91 989 -3.60808 1.5 -21.152979016666 188.55875188492
53	1178903 19552 119 542067 1.11 99.91 989 32.3587 36.1111 33802.0394 1155708.4809454
54	1198455 22720 119 542067 1.11 99.91 989 23.5999 3400.3 1701091.8899 3859983002.4461
55	1221175 22457 119 542067 1.11 99.91 989 242.45 249.05 244947.55 60671476.212501
56	1243632 18932 120 542068 1.11 99.91 989 -1 2.00003 -697.99831 1280.0067600361
57	1262564 18515 120 542068 1.11 99.91 989 -3.46021e-06 1.16096e-05 0.000120830404 2.4817439895639e-09
58	1281079 17512 120 542068 1.11 99.91 989 7 7 6923 48461
59	1298591 21589 120 542068 1.11 99.91 989 -2.66599 1.4688 18.964362438171 78.459151268784
60	1320180 27758 120 542068 1.11 99.91 989 -3.60809 1.5 19.476892932885 152.55906735832
61	1347938 19581 120 542068 1.11 99.91 989 34.3129 38.1017 37315.7213 1408472.539076
62	1367519 23430 120 542068 1.11 99.91 989 17.5999 3745.47 1849506.8337 4616679233.0477
63	1390949 22457 120 542068 1.11 99.91 989 242.45 252.35 241954.45000001 59201990.172499
64	1413406 39971 701 542139 1.269543540376 99.969544761476 988 0.099987520364 0.100003041948 98.800001741462 9.8800003667496
65	1453377 27265 701 542139 1.269543540376 99.969544761476 988 1 1 988 988
66	1480642 39971 701 542139 1.269543540376 99.969544761476 988 0.099987520364 0.100003041948 98.800001741462 9.8800003667496
67	1520613 27265 701 542139 1.269543540376 99.969544761476 988 1 1 988 988
68	1547878 40018 707 542115 1.26954356039 99.96954450155 988 0.099987520364 0.100003041614 98.800001461522 9.8800003107616
69	1587896 27265 707 542115 1.26954356039 99.96954450155 988 2 2 1976 3952
70	1615161 39996 713 542133 1.269543580404 99.969544657637 988 0.099987520364 0.100003041615 98.800001597595 9.8800003379762
71	1655157 27246 713 542133 1.269543580404 99.969544657637 988 3 3 2964 8892
72	1682403 40004 719 542121 1.269543600417 99.969544569372 988 0.099987520364 0.100003040947 98.800001489317 9.8800003163206
73	1722407 27262 719 542121 1.269543600417 99.969544569372 988 4 4 3952 15808
74	1749669 40011 725 542109 1.269543620431 99.969544478996 988 0.099987520364 0.10000304128 98.800001378927 9.8800002942426
75	1789680 27271 725 542109 1.269543620431 99.969544478996 988 5 5 4940 24700
76	1816951 40008 731 542127 1.269543640445 99.969544580239 988 0.099987520364 0.100003041614 98.800001460156 9.8800003104884
77	1856959 27263 731 542127 1.269543640445 99.969544580239 988 6 6 5928 35568
78	1884222 39978 737 542103 1.269543660459 99.969544216574 988 0.099987520364 0.10000304154 98.800001076477 9.8800002337526
79	1924200 27245 737 542103 1.269543660459 99.969544216574 988 7 7 6916 48412
80	1951445 40006 842 542274 1.292086700487 99.992089521527 988 0.099987520363 0.100003044208 98.800003341402 9.8800006867416
81	1991451 27262 842 542274 1.292086700487 99.992089521527 988 7 7 6916 48412
82	2018713 39988 908 542322 1.299178800556 99.999167810464 988 0.099987520362 0.100003039573 98.79998953027 9.8799979246364
83	2058701 27242 908 542322 1.299178800556 99.999167810464 988 2 2 1976 3952
84	2085943 40009 974 542382 1.299575860598 99.999577835177 988 0.099987520365 0.100003043871 98.800002494941 9.880000517427
85	2125952 27277 974 542382 1.299575860598 99.999577835177 988 5 5 4940 24700
86	2153229 39977 1041 541909 1.300193900626 99.900192931674 987 0.099987520363 0.100003039636 98.69999955141 9.869999928742
87	2193206 27229 1041 541909 1.300193900626 99.900192931674 987 3 3 2961 8883
88	2220435 39975 1110 541972 1.305595960668 99.90559490913 987 0.099987520363 0.100012641878 98.699999468824 9.8699999125406
89	2260410 27227 1110 541972 1.305595960668 99.90559490913 987 6 6 5922 35532
90	2287637 39950 1173 542029 1.306045000696 99.906070081911 987 0.099896817777 0.100094040831 98.700025601577 9.87000696527
91	2327587 27242 1173 542029 1.306045000696 99.906070081911 987 4 4 3948 15792
92	2354829 1459 4848 542428 2 100 99 0 0 0 0
93	2356288 2730 4848 542428 2 100 99 0.021651436826 0.02713499892 2.470881902331 0.061684956141576
94	2359018 1459 4848 542428 2 100 99 0 0 0 0
95	2360477 1459 4849 542429 2 100 99 1 1 99 99
96	2361936 2724 4849 542429 2 100 99 0.02165145684 0.026837676368 2.470585000674 0.061668929734667
97	2364660 1459 4849 542429 2 100 99 0 0 0 0
98	2366119 1459 4850 542430 2 100 99 2 2 198 396
99	2367578 2729 4850 542430 2 100 99 0.021651476854 0.026932680026 2.470680260868 0.061674050793751
100	2370307 1558 4850 542430 2 100 99 0 0 0 0
101	2371865 1558 4851 542431 2 100 99 3 3 297 891
102	2373423 2825 4851 542431 2 100 99 0.02165045684 0.026932719592 2.470679144809 0.061674001984002
103	2376248 1558 4851 542431 2 100 99 0 0 0 0
104	2377806 1558 4852 542432 2 100 99 4 4 396 1584
105	2379364 2830 4852 542432 2 100 99 0.021651436826 0.026837759593 2.470585266325 0.061668943444912
106	2382194 1558 4852 542432 2 100 99 0 0 0 0
107	2383752 1558 4853 542433 2 100 99 5 5 495 2475
108	2385310 2827 4853 542433 2 100 99 0.021650416812 0.02683779962 2.470584349097 0.061668904559154
109	2388137 1558 4853 542433 2 100 99 0 0 0 0
110	2389695 1558 4854 542434 2 100 99 6 6 594 3564
111	2391253 2831 4854 542434 2 100 99 0.021651396799 0.026837839648 2.470585341604 0.061668947769159
112	2394084 1558 4854 542434 2 100 99 0 0 0 0
113	2395642 1558 4855 542435 2 100 99 7 7 693 4851
114	2397200 2827 4855 542435 2 100 99 0.021651376785 0.026837877388 2.470584387059 0.061668900373024
115	2400027 1558 4855 542435 2 100 99 0 0 0 0

