version 3
run BreakRanksNoGui-21-20240710-05:50:51-234294
attr configname BreakRanksNoGui
attr datetime 20240710-05:50:51
attr datetimef 20240710-055051
attr experiment BreakRanksNoGui
attr inifile omnetpp.ini
attr iterationvars "$nCars=8, $platoonSize=8, $nLanes=1, $ploegH=0.5, $controller=1, $headway=0.1, $leaderHeadway=1.2, $leaderSpeed=130, $breakRanksSafetyDistance=2, $minSpeed=120, $maxSpeed=140, $beaconInterval=0.1, $priority=4, $packetSize=200, $sController=\"CACC\", $0=2, $1=0"
attr iterationvarsd nCars=8/platoonSize=8/nLanes=1/ploegH=0.5/controller=1/headway=0.1/leaderHeadway=1.2/leaderSpeed=130/breakRanksSafetyDistance=2/minSpeed=120/maxSpeed=140/beaconInterval=0.1/priority=4/packetSize=200/sController=CACC/2/0
attr iterationvarsf nCars=8,platoonSize=8,nLanes=1,ploegH=0.5,controller=1,headway=0.1,leaderHeadway=1.2,leaderSpeed=130,breakRanksSafetyDistance=2,minSpeed=120,maxSpeed=140,beaconInterval=0.1,priority=4,packetSize=200,sController=CACC,2,0-
attr measurement "$nCars=8, $platoonSize=8, $nLanes=1, $ploegH=0.5, $controller=1, $headway=0.1, $leaderHeadway=1.2, $leaderSpeed=130, $breakRanksSafetyDistance=2, $minSpeed=120, $maxSpeed=140, $beaconInterval=0.1, $priority=4, $packetSize=200, $sController=\"CACC\", $0=2, $1=0"
attr network Highway
attr processid 234294
attr repetition 1
attr replication #1
attr resultdir results
attr runnumber 21
attr seedset 1
itervar beaconInterval 0.1
itervar breakRanksSafetyDistance 2
itervar controller 1
itervar headway 0.1
itervar leaderHeadway 1.2
itervar leaderSpeed 130
itervar maxSpeed 140
itervar minSpeed 120
itervar nCars 8
itervar nLanes 1
itervar packetSize 200
itervar platoonSize 8
itervar ploegH 0.5
itervar priority 4
itervar sController "\"CACC\""
config image-path ../../../veins/images
config repeat 10
config extends BreakRanks
config *.manager.command "\"sumo\""
config *.manager.ignoreGuiCommands true
config output-vector-file results/BreakRanks_1_0.1_130_2/result_1.vec
config output-scalar-file results/BreakRanks_1_0.1_130_2/result_1.sca
config extends Platooning
config *.node[*].scenario_type "\"BreakRanksScenario\""
config *.manager.command "\"sumo-gui\""
config *.node[*].scenario_type "\"SimpleScenario\""
config cmdenv-express-mode true
config cmdenv-autoflush true
config cmdenv-status-frequency 15s
config num-rngs 6
config network Highway
config debug-on-errors true
config print-undisposed true
config *.playgroundSizeX 65000m
config *.playgroundSizeY 25000m
config *.playgroundSizeZ 50m
config sim-time-limit "100 s"
config *.annotations.draw false
config *.obstacles.debug false
config *.world.useTorus false
config *.world.use2D false
config *.manager.updateInterval 0.01s
config *.manager.host "\"localhost\""
config *.manager.moduleType "\"org.car2x.plexe.PlatoonCar\""
config *.manager.moduleName "\"node\""
config *.manager.moduleDisplayString "\"\""
config *.manager.autoShutdown true
config *.manager.margin 25
config *.connectionManager.sendDirect true
config *.connectionManager.maxInterfDist 2600m
config *.connectionManager.drawMaxIntfDist false
config *.**.nic.mac1609_4.useServiceChannel false
config *.**.nic.mac1609_4.txPower 100mW
config *.**.nic.mac1609_4.bitrate 6Mbps
config *.**.nic.mac1609_4.useAcks true
config *.**.nic.mac1609_4.ackErrorRate 0.0
config *.**.nic.mac1609_4.frameErrorRate 0.0
config *.**.nic.phy80211p.minPowerLevel -94dBm
config *.**.nic.phy80211p.maxTXPower 100mW
config *.**.nic.phy80211p.useNoiseFloor true
config *.**.nic.phy80211p.noiseFloor -95dBm
config *.**.nic.phy80211p.decider "xmldoc(\"config.xml\")"
config *.**.nic.phy80211p.analogueModels "xmldoc(\"config.xml\")"
config *.**.nic.phy80211p.usePropagationDelay true
config *.node[*].mobility.x 0
config *.node[*].mobility.y 0
config *.node[*].mobility.z 1.895
config seed-set 1
config **.seed 1
config *.node[*].prot.rng-0 2
config *.node[*].appl.rng-0 3
config *.node[*].scenario.rng-0 4
config **.traffic.rng-0 5
config *.manager.configFile "\"./sumocfg/freeway.sumo.cfg\""
config *.manager.launchConfig "xmldoc(\"./sumocfg/freeway.launchd.xml\")"
config **.numberOfCars 8
config **.numberOfCarsPerPlatoon 8
config **.numberOfLanes 1
config *.node[*].helper_type "\"PositionHelper\""
config *.node[*].scenario.caccC1 0.5
config *.node[*].scenario.caccXi 1
config *.node[*].scenario.caccOmegaN "0.2 Hz"
config *.node[*].scenario.caccSpacing "2 m"
config *.node[*].scenario.engineTau "0.5 s"
config *.node[*].scenario.ploegH 0.5s
config *.node[*].scenario.ploegKp 0.2
config *.node[*].scenario.ploegKd 0.7
config *.node[*].scenario.useRealisticEngine false
config *.node[*].scenario.useControllerAcceleration true
config *.node[*].scenario.nLanes 1
config **.numericController 1
config **.headway 0.1s
config *.node[*].scenario.accHeadway 0.1s
config *.node[*].scenario.leaderHeadway 1.2s
config *.node[*].scenario.leaderSpeed 130kmph
config *.node[*].appl_type "\"SimplePlatooningApp\""
config *.node[*].appl.*.scalar-recording true
config *.node[*].appl.*.vector-recording true
config *.node[0].appl.breakRanksSafetyDistance 2m
config *.node[*].appl.minSpeed 120kmph
config *.node[*].appl.maxSpeed 140kmph
config *.node[*].protocol_type "\"SimplePlatooningBeaconing\""
config *.node[*].prot.*.scalar-recording true
config *.node[*].prot.*.vector-recording true
config *.node[*].prot.beaconingInterval 0.1s
config *.node[*].prot.priority 4
config *.node[*].prot.packetSize 200
config **.traffic_type "\"PlatoonsTrafficManager\""
config **.traffic.platoonInsertTime "1 s"
config **.traffic.platoonInsertSpeed 130kmph
config **.traffic.nCars 8
config **.traffic.platoonSize 8
config **.traffic.nLanes 1
config **.traffic.platooningVType "\"vtypeauto\""
config **.traffic.controller "\"CACC\""
config **.traffic.platoonInsertDistance 2m
config **.traffic.platoonInsertHeadway 0s
config **.traffic.platoonLeaderHeadway 1.2s
config **.scalar-recording false
config **.vector-recording false

vector 0 Highway.node[0].appl distance ETV
vector 1 Highway.node[0].appl relativeSpeed ETV
vector 2 Highway.node[0].appl nodeId ETV
vector 3 Highway.node[0].appl acceleration ETV
vector 4 Highway.node[0].appl controllerAcceleration ETV
vector 5 Highway.node[0].appl speed ETV
vector 6 Highway.node[0].appl posx ETV
vector 7 Highway.node[0].appl posy ETV
vector 8 Highway.node[1].appl distance ETV
vector 9 Highway.node[1].appl relativeSpeed ETV
vector 10 Highway.node[1].appl nodeId ETV
vector 11 Highway.node[1].appl acceleration ETV
vector 12 Highway.node[1].appl controllerAcceleration ETV
vector 13 Highway.node[1].appl speed ETV
vector 14 Highway.node[1].appl posx ETV
vector 15 Highway.node[1].appl posy ETV
vector 16 Highway.node[2].appl distance ETV
vector 17 Highway.node[2].appl relativeSpeed ETV
vector 18 Highway.node[2].appl nodeId ETV
vector 19 Highway.node[2].appl acceleration ETV
vector 20 Highway.node[2].appl controllerAcceleration ETV
vector 21 Highway.node[2].appl speed ETV
vector 22 Highway.node[2].appl posx ETV
vector 23 Highway.node[2].appl posy ETV
vector 24 Highway.node[3].appl distance ETV
vector 25 Highway.node[3].appl relativeSpeed ETV
vector 26 Highway.node[3].appl nodeId ETV
vector 27 Highway.node[3].appl acceleration ETV
vector 28 Highway.node[3].appl controllerAcceleration ETV
vector 29 Highway.node[3].appl speed ETV
vector 30 Highway.node[3].appl posx ETV
vector 31 Highway.node[3].appl posy ETV
vector 32 Highway.node[4].appl distance ETV
vector 33 Highway.node[4].appl relativeSpeed ETV
vector 34 Highway.node[4].appl nodeId ETV
vector 35 Highway.node[4].appl acceleration ETV
vector 36 Highway.node[4].appl controllerAcceleration ETV
vector 37 Highway.node[4].appl speed ETV
vector 38 Highway.node[4].appl posx ETV
vector 39 Highway.node[4].appl posy ETV
vector 40 Highway.node[5].appl distance ETV
vector 41 Highway.node[5].appl relativeSpeed ETV
vector 42 Highway.node[5].appl nodeId ETV
vector 43 Highway.node[5].appl acceleration ETV
vector 44 Highway.node[5].appl controllerAcceleration ETV
vector 45 Highway.node[5].appl speed ETV
vector 46 Highway.node[5].appl posx ETV
vector 47 Highway.node[5].appl posy ETV
vector 48 Highway.node[6].appl distance ETV
vector 49 Highway.node[6].appl relativeSpeed ETV
vector 50 Highway.node[6].appl nodeId ETV
vector 51 Highway.node[6].appl acceleration ETV
vector 52 Highway.node[6].appl controllerAcceleration ETV
vector 53 Highway.node[6].appl speed ETV
vector 54 Highway.node[6].appl posx ETV
vector 55 Highway.node[6].appl posy ETV
vector 56 Highway.node[7].appl distance ETV
vector 57 Highway.node[7].appl relativeSpeed ETV
vector 58 Highway.node[7].appl nodeId ETV
vector 59 Highway.node[7].appl acceleration ETV
vector 60 Highway.node[7].appl controllerAcceleration ETV
vector 61 Highway.node[7].appl speed ETV
vector 62 Highway.node[7].appl posx ETV
vector 63 Highway.node[7].appl posy ETV
vector 64 Highway.node[2].prot frontDelay ETV
vector 65 Highway.node[2].prot frontDelayId ETV
vector 66 Highway.node[4].prot frontDelay ETV
vector 67 Highway.node[4].prot frontDelayId ETV
vector 68 Highway.node[6].prot frontDelay ETV
vector 69 Highway.node[6].prot frontDelayId ETV
vector 70 Highway.node[7].prot frontDelay ETV
vector 71 Highway.node[7].prot frontDelayId ETV
vector 72 Highway.node[5].prot frontDelay ETV
vector 73 Highway.node[5].prot frontDelayId ETV
vector 74 Highway.node[1].prot leaderDelay ETV
vector 75 Highway.node[1].prot leaderDelayId ETV
vector 76 Highway.node[1].prot frontDelay ETV
vector 77 Highway.node[1].prot frontDelayId ETV
vector 78 Highway.node[2].prot leaderDelay ETV
vector 79 Highway.node[2].prot leaderDelayId ETV
vector 80 Highway.node[3].prot leaderDelay ETV
vector 81 Highway.node[3].prot leaderDelayId ETV
vector 82 Highway.node[4].prot leaderDelay ETV
vector 83 Highway.node[4].prot leaderDelayId ETV
vector 84 Highway.node[5].prot leaderDelay ETV
vector 85 Highway.node[5].prot leaderDelayId ETV
vector 86 Highway.node[6].prot leaderDelay ETV
vector 87 Highway.node[6].prot leaderDelayId ETV
vector 88 Highway.node[7].prot leaderDelay ETV
vector 89 Highway.node[7].prot leaderDelayId ETV
vector 90 Highway.node[3].prot frontDelay ETV
vector 91 Highway.node[3].prot frontDelayId ETV
vector 92 Highway.node[0].prot nodeId ETV
vector 93 Highway.node[0].prot busyTime ETV
vector 94 Highway.node[0].prot collisions ETV
vector 95 Highway.node[1].prot nodeId ETV
vector 96 Highway.node[1].prot busyTime ETV
vector 97 Highway.node[1].prot collisions ETV
vector 98 Highway.node[2].prot nodeId ETV
vector 99 Highway.node[2].prot busyTime ETV
vector 100 Highway.node[2].prot collisions ETV
vector 101 Highway.node[3].prot nodeId ETV
vector 102 Highway.node[3].prot busyTime ETV
vector 103 Highway.node[3].prot collisions ETV
vector 104 Highway.node[4].prot nodeId ETV
vector 105 Highway.node[4].prot busyTime ETV
vector 106 Highway.node[4].prot collisions ETV
vector 107 Highway.node[5].prot nodeId ETV
vector 108 Highway.node[5].prot busyTime ETV
vector 109 Highway.node[5].prot collisions ETV
vector 110 Highway.node[6].prot nodeId ETV
vector 111 Highway.node[6].prot busyTime ETV
vector 112 Highway.node[6].prot collisions ETV
vector 113 Highway.node[7].prot nodeId ETV
vector 114 Highway.node[7].prot busyTime ETV
vector 115 Highway.node[7].prot collisions ETV
0	113	1.11	-1
0	659	1.21	-1
0	1205	1.31	-1
0	1751	1.41	-1
0	2297	1.51	-1
0	2843	1.61	-1
0	3389	1.71	-1
0	3935	1.81	-1
0	4481	1.91	-1
0	5035	2.01	-1
0	5581	2.11	-1
0	6127	2.21	-1
0	6673	2.31	-1
0	7219	2.41	-1
0	7765	2.51	-1
0	8311	2.61	-1
0	8857	2.71	-1
0	9403	2.81	-1
0	9949	2.91	-1
0	10503	3.01	-1
0	11049	3.11	-1
0	11595	3.21	-1
0	12141	3.31	-1
0	12687	3.41	-1
0	13233	3.51	-1
0	13779	3.61	-1
0	14325	3.71	-1
0	14871	3.81	-1
0	15417	3.91	-1
0	15971	4.01	-1
0	16517	4.11	-1
0	17063	4.21	-1
0	17609	4.31	-1
0	18155	4.41	-1
0	18701	4.51	-1
0	19247	4.61	-1
0	19793	4.71	-1
0	20339	4.81	-1
0	20885	4.91	-1
0	21439	5.01	-1
0	21985	5.11	-1
0	22531	5.21	-1
0	23077	5.31	-1
0	23623	5.41	-1
0	24169	5.51	-1
0	24715	5.61	-1
0	25261	5.71	-1
0	25807	5.81	-1
0	26353	5.91	-1
0	26907	6.01	-1
0	27453	6.11	-1
0	27999	6.21	-1
0	28545	6.31	-1
0	29091	6.41	-1
0	29637	6.51	-1
0	30183	6.61	-1
0	30729	6.71	-1
0	31275	6.81	-1
0	31821	6.91	-1
0	32375	7.01	-1
0	32921	7.11	-1
0	33467	7.21	-1
0	34013	7.31	-1
0	34559	7.41	-1
0	35105	7.51	-1
0	35651	7.61	-1
0	36197	7.71	-1
0	36743	7.81	-1
0	37289	7.91	-1
0	37843	8.01	-1
0	38389	8.11	-1
0	38935	8.21	-1
0	39481	8.31	-1
0	40027	8.41	-1
0	40573	8.51	-1
0	41119	8.61	-1
0	41665	8.71	-1
0	42211	8.81	-1
0	42757	8.91	-1
0	43311	9.01	-1
0	43857	9.11	-1
0	44403	9.21	-1
0	44949	9.31	-1
0	45495	9.41	-1
0	46041	9.51	-1
0	46587	9.61	-1
0	47133	9.71	-1
0	47679	9.81	-1
0	48225	9.91	-1
0	50569	10.01	-1
0	51115	10.11	-1
0	51661	10.21	-1
0	52207	10.31	-1
0	52753	10.41	-1
0	53299	10.51	-1
0	53845	10.61	-1
0	54391	10.71	-1
0	54937	10.81	-1
0	55483	10.91	-1
0	56037	11.01	-1
0	56583	11.11	-1
0	57129	11.21	-1
0	57675	11.31	-1
0	58221	11.41	-1
0	58767	11.51	-1
0	59313	11.61	-1
0	59859	11.71	-1
0	60405	11.81	-1
0	60951	11.91	-1
0	61505	12.01	-1
0	62051	12.11	-1
0	62597	12.21	-1
0	63143	12.31	-1
0	63689	12.41	-1
0	64235	12.51	-1
0	64781	12.61	-1
0	65327	12.71	-1
0	65873	12.81	-1
0	66419	12.91	-1
0	66973	13.01	-1
0	67519	13.11	-1
0	68065	13.21	-1
0	68611	13.31	-1
0	69157	13.41	-1
0	69703	13.51	-1
0	70249	13.61	-1
0	70795	13.71	-1
0	71341	13.81	-1
0	71887	13.91	-1
0	72441	14.01	-1
0	72987	14.11	-1
0	73533	14.21	-1
0	74079	14.31	-1
0	74625	14.41	-1
0	75171	14.51	-1
0	75717	14.61	-1
0	76263	14.71	-1
0	76809	14.81	-1
0	77355	14.91	-1
0	77909	15.01	-1
0	78455	15.11	-1
0	79001	15.21	-1
0	79547	15.31	-1
0	80093	15.41	-1
0	80639	15.51	-1
0	81185	15.61	-1
0	81731	15.71	-1
0	82277	15.81	-1
0	82823	15.91	-1
0	83377	16.01	-1
0	83923	16.11	-1
0	84469	16.21	-1
0	85015	16.31	-1
0	85561	16.41	-1
0	86107	16.51	-1
0	86653	16.61	-1
0	87199	16.71	-1
0	87745	16.81	-1
0	88291	16.91	-1
0	88845	17.01	-1
0	89391	17.11	-1
0	89937	17.21	-1
0	90483	17.31	-1
0	91029	17.41	-1
0	91575	17.51	-1
0	92121	17.61	-1
0	92667	17.71	-1
0	93213	17.81	-1
0	93759	17.91	-1
0	94313	18.01	-1
0	94859	18.11	-1
0	95405	18.21	-1
0	95951	18.31	-1
0	96497	18.41	-1
0	97043	18.51	-1
0	97589	18.61	-1
0	98135	18.71	-1
0	98681	18.81	-1
0	99227	18.91	-1
0	99781	19.01	-1
0	100327	19.11	-1
0	100873	19.21	-1
0	101419	19.31	-1
0	101965	19.41	-1
0	102511	19.51	-1
0	103057	19.61	-1
0	103603	19.71	-1
0	104149	19.81	-1
0	104695	19.91	-1
0	105249	20.01	-1
0	105795	20.11	-1
0	106341	20.21	-1
0	106887	20.31	-1
0	107433	20.41	-1
0	107979	20.51	-1
0	108525	20.61	-1
0	109071	20.71	-1
0	109617	20.81	-1
0	110163	20.91	-1
0	110717	21.01	-1
0	111263	21.11	-1
0	111809	21.21	-1
0	112355	21.31	-1
0	112901	21.41	-1
0	113447	21.51	-1
0	113993	21.61	-1
0	114539	21.71	-1
0	115085	21.81	-1
0	115631	21.91	-1
0	116185	22.01	-1
0	116731	22.11	-1
0	117277	22.21	-1
0	117823	22.31	-1
0	118369	22.41	-1
0	118915	22.51	-1
0	119461	22.61	-1
0	120007	22.71	-1
0	120553	22.81	-1
0	121099	22.91	-1
0	121653	23.01	-1
0	122199	23.11	-1
0	122745	23.21	-1
0	123291	23.31	-1
0	123837	23.41	-1
0	124383	23.51	-1
0	124929	23.61	-1
0	125475	23.71	-1
0	126021	23.81	-1
0	126567	23.91	-1
0	127121	24.01	-1
0	127667	24.11	-1
0	128213	24.21	-1
0	128759	24.31	-1
0	129305	24.41	-1
0	129851	24.51	-1
0	130397	24.61	-1
0	130943	24.71	-1
0	131489	24.81	-1
0	132035	24.91	-1
0	132589	25.01	-1
0	133135	25.11	-1
0	133681	25.21	-1
0	134227	25.31	-1
0	134773	25.41	-1
0	135319	25.51	-1
0	135865	25.61	-1
0	136411	25.71	-1
0	136957	25.81	-1
0	137503	25.91	-1
0	138057	26.01	-1
0	138603	26.11	-1
0	139149	26.21	-1
0	139695	26.31	-1
0	140241	26.41	-1
0	140787	26.51	-1
0	141333	26.61	-1
0	141879	26.71	-1
0	142425	26.81	-1
0	142971	26.91	-1
0	143525	27.01	-1
0	144071	27.11	-1
0	144617	27.21	-1
0	145163	27.31	-1
0	145709	27.41	-1
0	146255	27.51	-1
0	146801	27.61	-1
0	147347	27.71	-1
0	147893	27.81	-1
0	148439	27.91	-1
0	148993	28.01	-1
0	149539	28.11	-1
0	150085	28.21	-1
0	150631	28.31	-1
0	151177	28.41	-1
0	151723	28.51	-1
0	152269	28.61	-1
0	152815	28.71	-1
0	153361	28.81	-1
0	153907	28.91	-1
0	154461	29.01	-1
0	155007	29.11	-1
0	155553	29.21	-1
0	156099	29.31	-1
0	156645	29.41	-1
0	157191	29.51	-1
0	157737	29.61	-1
0	158283	29.71	-1
0	158829	29.81	-1
0	159375	29.91	-1
0	159929	30.01	-1
0	160475	30.11	-1
0	161021	30.21	-1
0	161567	30.31	-1
0	162113	30.41	-1
0	162659	30.51	-1
0	163205	30.61	-1
0	163751	30.71	-1
0	164297	30.81	-1
0	164843	30.91	-1
0	165397	31.01	-1
0	165943	31.11	-1
0	166489	31.21	-1
0	167035	31.31	-1
0	167581	31.41	-1
0	168127	31.51	-1
0	168673	31.61	-1
0	169219	31.71	-1
0	169765	31.81	-1
0	170311	31.91	-1
0	170865	32.01	-1
0	171411	32.11	-1
0	171957	32.21	-1
0	172503	32.31	-1
0	173049	32.41	-1
0	173595	32.51	-1
0	174141	32.61	-1
0	174687	32.71	-1
0	175233	32.81	-1
0	175779	32.91	-1
0	176333	33.01	-1
0	176879	33.11	-1
0	177425	33.21	-1
0	177971	33.31	-1
0	178517	33.41	-1
0	179063	33.51	-1
0	179609	33.61	-1
0	180155	33.71	-1
0	180701	33.81	-1
0	181247	33.91	-1
0	181801	34.01	-1
0	182347	34.11	-1
0	182893	34.21	-1
0	183439	34.31	-1
0	183985	34.41	-1
0	184531	34.51	-1
0	185077	34.61	-1
0	185623	34.71	-1
0	186169	34.81	-1
0	186715	34.91	-1
0	187269	35.01	-1
0	187815	35.11	-1
0	188361	35.21	-1
0	188907	35.31	-1
0	189453	35.41	-1
0	189999	35.51	-1
0	190545	35.61	-1
0	191091	35.71	-1
0	191637	35.81	-1
0	192183	35.91	-1
0	192737	36.01	-1
0	193283	36.11	-1
0	193829	36.21	-1
0	194375	36.31	-1
0	194921	36.41	-1
0	195467	36.51	-1
0	196013	36.61	-1
0	196559	36.71	-1
0	197105	36.81	-1
0	197651	36.91	-1
0	198205	37.01	-1
0	198751	37.11	-1
0	199297	37.21	-1
0	199843	37.31	-1
0	200389	37.41	-1
0	200935	37.51	-1
0	201481	37.61	-1
0	202027	37.71	-1
0	202573	37.81	-1
0	203119	37.91	-1
0	203673	38.01	-1
0	204219	38.11	-1
0	204765	38.21	-1
0	205311	38.31	-1
0	205857	38.41	-1
0	206403	38.51	-1
0	206949	38.61	-1
0	207495	38.71	-1
0	208041	38.81	-1
0	208587	38.91	-1
0	209141	39.01	-1
0	209687	39.11	-1
0	210233	39.21	-1
0	210779	39.31	-1
0	211325	39.41	-1
0	211871	39.51	-1
0	212417	39.61	-1
0	212963	39.71	-1
0	213509	39.81	-1
0	214055	39.91	-1
0	214609	40.01	-1
0	215155	40.11	-1
0	215701	40.21	-1
0	216247	40.31	-1
0	216793	40.41	-1
0	217339	40.51	-1
0	217885	40.61	-1
0	218431	40.71	-1
0	218977	40.81	-1
0	219523	40.91	-1
0	220077	41.01	-1
0	220623	41.11	-1
0	221169	41.21	-1
0	221715	41.31	-1
0	222261	41.41	-1
0	222807	41.51	-1
0	223353	41.61	-1
0	223899	41.71	-1
0	224445	41.81	-1
0	224991	41.91	-1
0	225545	42.01	-1
0	226091	42.11	-1
0	226637	42.21	-1
0	227183	42.31	-1
0	227729	42.41	-1
0	228275	42.51	-1
0	228821	42.61	-1
0	229367	42.71	-1
0	229913	42.81	-1
0	230459	42.91	-1
0	231013	43.01	-1
0	231559	43.11	-1
0	232105	43.21	-1
0	232651	43.31	-1
0	233197	43.41	-1
0	233743	43.51	-1
0	234289	43.61	-1
0	234835	43.71	-1
0	235381	43.81	-1
0	235927	43.91	-1
0	236481	44.01	-1
0	237027	44.11	-1
0	237573	44.21	-1
0	238119	44.31	-1
0	238665	44.41	-1
0	239211	44.51	-1
0	239757	44.61	-1
0	240303	44.71	-1
0	240849	44.81	-1
0	241395	44.91	-1
0	241949	45.01	-1
0	242495	45.11	-1
0	243041	45.21	-1
0	243587	45.31	-1
0	244133	45.41	-1
0	244679	45.51	-1
0	245225	45.61	-1
0	245771	45.71	-1
0	246317	45.81	-1
0	246863	45.91	-1
0	247417	46.01	-1
0	247963	46.11	-1
0	248509	46.21	-1
0	249055	46.31	-1
0	249601	46.41	-1
0	250147	46.51	-1
0	250693	46.61	-1
0	251239	46.71	-1
0	251785	46.81	-1
0	252331	46.91	-1
0	252885	47.01	-1
0	253431	47.11	-1
0	253977	47.21	-1
0	254523	47.31	-1
0	255069	47.41	-1
0	255615	47.51	-1
0	256161	47.61	-1
0	256707	47.71	-1
0	257253	47.81	-1
0	257799	47.91	-1
0	258353	48.01	-1
0	258899	48.11	-1
0	259445	48.21	-1
0	259991	48.31	-1
0	260537	48.41	-1
0	261083	48.51	-1
0	261629	48.61	-1
0	262175	48.71	-1
0	262721	48.81	-1
0	263267	48.91	-1
0	263821	49.01	-1
0	264367	49.11	-1
0	264913	49.21	-1
0	265459	49.31	-1
0	266005	49.41	-1
0	266551	49.51	-1
0	267097	49.61	-1
0	267643	49.71	-1
0	268189	49.81	-1
0	268735	49.91	-1
0	269289	50.01	-1
0	269835	50.11	-1
0	270381	50.21	-1
0	270927	50.31	-1
0	271473	50.41	-1
0	272019	50.51	-1
0	272565	50.61	-1
0	273111	50.71	-1
0	273657	50.81	-1
0	274203	50.91	-1
0	274757	51.01	-1
0	275303	51.11	-1
0	275849	51.21	-1
0	276395	51.31	-1
0	276941	51.41	-1
0	277487	51.51	-1
0	278033	51.61	-1
0	278579	51.71	-1
0	279125	51.81	-1
0	279671	51.91	-1
0	280225	52.01	-1
0	280771	52.11	-1
0	281317	52.21	-1
0	281863	52.31	-1
0	282409	52.41	-1
0	282955	52.51	-1
0	283501	52.61	-1
0	284047	52.71	-1
0	284593	52.81	-1
0	285139	52.91	-1
0	285693	53.01	-1
0	286239	53.11	-1
0	286785	53.21	-1
0	287331	53.31	-1
0	287877	53.41	-1
0	288423	53.51	-1
0	288969	53.61	-1
0	289515	53.71	-1
0	290061	53.81	-1
0	290607	53.91	-1
0	291161	54.01	-1
0	291707	54.11	-1
0	292253	54.21	-1
0	292799	54.31	-1
0	293345	54.41	-1
0	293891	54.51	-1
0	294437	54.61	-1
0	294983	54.71	-1
0	295529	54.81	-1
0	296075	54.91	-1
0	296629	55.01	-1
0	297175	55.11	-1
0	297721	55.21	-1
0	298267	55.31	-1
0	298813	55.41	-1
0	299359	55.51	-1
0	299905	55.61	-1
0	300451	55.71	-1
0	300997	55.81	-1
0	301543	55.91	-1
0	302097	56.01	-1
0	302643	56.11	-1
0	303189	56.21	-1
0	303735	56.31	-1
0	304281	56.41	-1
0	304827	56.51	-1
0	305373	56.61	-1
0	305919	56.71	-1
0	306465	56.81	-1
0	307011	56.91	-1
0	307565	57.01	-1
0	308111	57.11	-1
0	308657	57.21	-1
0	309203	57.31	-1
0	309749	57.41	-1
0	310295	57.51	-1
0	310841	57.61	-1
0	311387	57.71	-1
0	311933	57.81	-1
0	312479	57.91	-1
0	313033	58.01	-1
0	313579	58.11	-1
0	314125	58.21	-1
0	314671	58.31	-1
0	315217	58.41	-1
0	315763	58.51	-1
0	316309	58.61	-1
0	316855	58.71	-1
0	317401	58.81	-1
0	317947	58.91	32.5375
0	318501	59.01	32.6267
0	319047	59.11	32.7167
0	319593	59.21	32.8079
0	320139	59.31	32.9005
0	320685	59.41	32.9949
0	321231	59.51	33.0911
0	321777	59.61	33.1891
0	322323	59.71	33.2891
0	322869	59.81	33.3909
0	323415	59.91	33.4944
0	323969	60.01	33.5996
0	324515	60.11	33.7063
0	325061	60.21	33.8144
0	325607	60.31	33.9236
0	326153	60.41	34.0339
0	326699	60.51	34.145
0	327245	60.61	34.2568
0	327791	60.71	34.3691
0	328337	60.81	34.4817
0	328883	60.91	34.5946
0	329437	61.01	34.7074
0	329983	61.11	34.8202
0	330529	61.21	34.9327
0	331075	61.31	35.0449
0	331621	61.41	35.1566
0	332167	61.51	35.2677
0	332713	61.61	35.3782
0	333259	61.71	35.488
0	333805	61.81	35.597
0	334351	61.91	35.7051
0	334905	62.01	35.8123
0	335451	62.11	35.9186
0	335997	62.21	36.0239
0	336543	62.31	36.1281
0	337089	62.41	36.2314
0	337635	62.51	36.3336
0	338181	62.61	36.4347
0	338727	62.71	36.5348
0	339273	62.81	36.6338
0	339819	62.91	36.7318
0	340373	63.01	36.8287
0	340919	63.11	36.9247
0	341465	63.21	37.0197
0	342011	63.31	37.1138
0	342557	63.41	37.2071
0	343103	63.51	37.2997
0	343649	63.61	37.3916
0	344195	63.71	37.4829
0	344741	63.81	37.5736
0	345287	63.91	37.6639
0	345841	64.01	37.7537
0	346387	64.11	37.8432
0	346933	64.21	37.9323
0	347479	64.31	38.0213
0	348025	64.41	38.11
0	348571	64.51	38.1985
0	349117	64.61	38.2869
0	349663	64.71	38.3752
0	350209	64.81	38.4634
0	350755	64.91	38.5516
0	351309	65.01	38.6398
0	351855	65.11	38.7279
0	352401	65.21	38.8161
0	352947	65.31	38.9043
0	353493	65.41	38.9925
0	354039	65.51	39.0807
0	354585	65.61	39.169
0	355131	65.71	39.2573
0	355677	65.81	39.3457
0	356223	65.91	39.4341
0	356777	66.01	39.5226
0	357323	66.11	39.6111
0	357869	66.21	39.6996
0	358415	66.31	39.7882
0	358961	66.41	39.8769
0	359507	66.51	39.9656
0	360053	66.61	40.0543
0	360599	66.71	40.143
0	361145	66.81	40.2318
0	361691	66.91	40.3206
0	362245	67.01	40.4094
0	362791	67.11	40.4983
0	363337	67.21	40.5871
0	363883	67.31	40.676
0	364429	67.41	40.7649
0	364975	67.51	40.8538
0	365521	67.61	40.9427
0	366067	67.71	41.0316
0	366613	67.81	41.1205
0	367159	67.91	41.2094
0	367713	68.01	41.2983
0	368259	68.11	41.3873
0	368805	68.21	41.4762
0	369351	68.31	41.5651
0	369897	68.41	41.654
0	370443	68.51	41.7429
0	370989	68.61	41.8319
0	371535	68.71	41.9208
0	372081	68.81	42.0097
0	372627	68.91	42.0986
0	373181	69.01	42.1875
0	373727	69.11	42.2764
0	374273	69.21	42.3653
0	374819	69.31	42.4542
0	375365	69.41	42.5431
0	375911	69.51	42.632
0	376457	69.61	42.7209
0	377003	69.71	42.8098
0	377549	69.81	42.8987
0	378095	69.91	42.9876
0	378649	70.01	43.0765
0	379195	70.11	43.1654
0	379741	70.21	43.2543
0	380287	70.31	43.3432
0	380833	70.41	43.4321
0	381379	70.51	43.521
0	381925	70.61	43.6099
0	382471	70.71	43.6988
0	383017	70.81	43.7877
0	383563	70.91	43.8766
0	384117	71.01	43.9654
0	384663	71.11	44.0543
0	385209	71.21	44.1432
0	385755	71.31	44.2321
0	386301	71.41	44.321
0	386847	71.51	44.4099
0	387393	71.61	44.4988
0	387939	71.71	44.5877
0	388485	71.81	44.6765
0	389031	71.91	44.7654
0	389585	72.01	44.8543
0	390131	72.11	44.9432
0	390677	72.21	45.0321
0	391223	72.31	45.121
0	391769	72.41	45.2099
0	392315	72.51	45.2988
0	392861	72.61	45.3877
0	393407	72.71	45.4766
0	393953	72.81	45.5654
0	394499	72.91	45.6543
0	395053	73.01	45.7432
0	395599	73.11	45.8321
0	396145	73.21	45.921
0	396691	73.31	46.0099
0	397237	73.41	46.0988
0	397783	73.51	46.1877
0	398329	73.61	46.2766
0	398875	73.71	46.3654
0	399421	73.81	46.4543
0	399967	73.91	46.5432
0	400521	74.01	46.6321
0	401067	74.11	46.721
0	401613	74.21	46.8099
0	402159	74.31	46.8988
0	402705	74.41	46.9877
0	403251	74.51	47.0766
0	403797	74.61	47.1655
0	404343	74.71	47.2544
0	404889	74.81	47.3432
0	405435	74.91	47.4321
0	405989	75.01	47.521
0	406535	75.11	47.6099
0	407081	75.21	47.6988
0	407627	75.31	47.7877
0	408173	75.41	47.8766
0	408719	75.51	47.9655
0	409265	75.61	48.0544
0	409811	75.71	48.1433
0	410357	75.81	48.2321
0	410903	75.91	48.321
0	411457	76.01	48.4099
0	412003	76.11	48.4988
0	412549	76.21	48.5877
0	413095	76.31	48.6766
0	413641	76.41	48.7655
0	414187	76.51	48.8544
0	414733	76.61	48.9433
0	415279	76.71	49.0322
0	415825	76.81	49.121
0	416371	76.91	49.2099
0	416925	77.01	49.2988
0	417471	77.11	49.3877
0	418017	77.21	49.4766
0	418563	77.31	49.5655
0	419109	77.41	49.6544
0	419655	77.51	49.7433
0	420201	77.61	49.8322
0	420747	77.71	49.9211
0	421293	77.81	50.0099
0	421839	77.91	50.0988
0	422393	78.01	50.1877
0	422939	78.11	50.2766
0	423485	78.21	50.3655
0	424031	78.31	50.4544
0	424577	78.41	50.5433
0	425123	78.51	50.6322
0	425669	78.61	50.7211
0	426215	78.71	50.81
0	426761	78.81	50.8988
0	427307	78.91	50.9877
0	427861	79.01	51.0766
0	428407	79.11	51.1655
0	428953	79.21	51.2544
0	429499	79.31	51.3433
0	430045	79.41	51.4322
0	430591	79.51	51.5211
0	431137	79.61	51.61
0	431683	79.71	51.6989
0	432229	79.81	51.7877
0	432775	79.91	51.8766
0	433329	80.01	51.9655
0	433875	80.11	52.0544
0	434421	80.21	52.1433
0	434967	80.31	52.2322
0	435513	80.41	52.3211
0	436059	80.51	52.41
0	436605	80.61	52.4989
0	437151	80.71	52.5878
0	437697	80.81	52.6766
0	438243	80.91	52.7655
0	438797	81.01	52.8544
0	439343	81.11	52.9433
0	439889	81.21	53.0322
0	440435	81.31	53.1211
0	440981	81.41	53.21
0	441527	81.51	53.2989
0	442073	81.61	53.3878
0	442619	81.71	53.4767
0	443165	81.81	53.5655
0	443711	81.91	53.6544
0	444265	82.01	53.7433
0	444811	82.11	53.8322
0	445357	82.21	53.9211
0	445903	82.31	54.01
0	446449	82.41	54.0989
0	446995	82.51	54.1878
0	447541	82.61	54.2767
0	448087	82.71	54.3656
0	448633	82.81	54.4544
0	449179	82.91	54.5433
0	449733	83.01	54.6322
0	450279	83.11	54.7211
0	450825	83.21	54.81
0	451371	83.31	54.8989
0	451917	83.41	54.9878
0	452463	83.51	55.0767
0	453009	83.61	55.1656
0	453555	83.71	55.2545
0	454101	83.81	55.3433
0	454647	83.91	55.4322
0	455201	84.01	55.5211
0	455747	84.11	55.61
0	456293	84.21	55.6989
0	456839	84.31	55.7878
0	457385	84.41	55.8767
0	457931	84.51	55.9656
0	458477	84.61	56.0545
0	459023	84.71	56.1434
0	459569	84.81	56.2322
0	460115	84.91	56.3211
0	460669	85.01	56.41
0	461215	85.11	56.4989
0	461761	85.21	56.5878
0	462307	85.31	56.6767
0	462853	85.41	56.7656
0	463399	85.51	56.8545
0	463945	85.61	56.9434
0	464491	85.71	57.0323
0	465037	85.81	57.1211
0	465583	85.91	57.21
0	466137	86.01	57.2989
0	466683	86.11	57.3878
0	467229	86.21	57.4767
0	467775	86.31	57.5656
0	468321	86.41	57.6545
0	468867	86.51	57.7434
0	469413	86.61	57.8323
0	469959	86.71	57.9212
0	470505	86.81	58.01
0	471051	86.91	58.0989
0	471605	87.01	58.1878
0	472151	87.11	58.2767
0	472697	87.21	58.3656
0	473243	87.31	58.4545
0	473789	87.41	58.5434
0	474335	87.51	58.6323
0	474881	87.61	58.7212
0	475427	87.71	58.8101
0	475973	87.81	58.8989
0	476519	87.91	58.9878
0	477073	88.01	59.0767
0	477619	88.11	59.1656
0	478165	88.21	59.2544
0	478711	88.31	59.3428
0	479257	88.41	59.4304
0	479803	88.51	59.5167
0	480349	88.61	59.6016
0	480895	88.71	59.685
0	481441	88.81	59.7667
0	481987	88.91	59.8468
0	482541	89.01	59.9252
0	483087	89.11	60.0021
0	483633	89.21	60.0775
0	484179	89.31	60.1515
0	484725	89.41	60.2243
0	485271	89.51	60.2961
0	485817	89.61	60.367
0	486363	89.71	60.4371
0	486909	89.81	60.5067
0	487455	89.91	60.5759
0	488009	90.01	60.6448
0	488555	90.11	60.7136
0	489101	90.21	60.7824
0	489647	90.31	60.8514
0	490193	90.41	60.9208
0	490739	90.51	60.9905
0	491285	90.61	61.0608
0	491831	90.71	61.1317
0	492377	90.81	61.2033
0	492923	90.91	61.2757
0	493477	91.01	61.3489
0	494023	91.11	61.4231
0	494569	91.21	61.4982
0	495115	91.31	61.5743
0	495661	91.41	61.6514
0	496207	91.51	61.7296
0	496753	91.61	61.8089
0	497299	91.71	61.8892
0	497845	91.81	61.9705
0	498391	91.91	62.0527
0	498945	92.01	62.1359
0	499491	92.11	62.2199
0	500037	92.21	62.3048
0	500583	92.31	62.3903
0	501129	92.41	62.4765
0	501675	92.51	62.5632
0	502221	92.61	62.6505
0	502767	92.71	62.7382
0	503313	92.81	62.8263
0	503859	92.91	62.9147
0	504413	93.01	63.0035
0	504959	93.11	63.0924
0	505505	93.21	63.1816
0	506051	93.31	63.2709
0	506597	93.41	63.3603
0	507143	93.51	63.4498
0	507689	93.61	63.5394
0	508235	93.71	63.629
0	508781	93.81	63.7186
0	509327	93.91	63.8082
0	509881	94.01	63.8978
0	510427	94.11	63.9874
0	510973	94.21	64.077
0	511519	94.31	64.1665
0	512065	94.41	64.256
0	512611	94.51	64.3454
0	513157	94.61	64.4348
0	513703	94.71	64.5241
0	514249	94.81	64.6134
0	514795	94.91	64.7027
0	515349	95.01	64.7919
0	515895	95.11	64.881
0	516441	95.21	64.9702
0	516987	95.31	65.0592
0	517533	95.41	65.1483
0	518079	95.51	65.2373
0	518625	95.61	65.3263
0	519171	95.71	65.4153
0	519717	95.81	65.5042
0	520263	95.91	65.5932
0	520817	96.01	65.6821
0	521363	96.11	65.771
0	521909	96.21	65.8599
0	522455	96.31	65.9488
0	523001	96.41	66.0376
0	523547	96.51	66.1265
0	524093	96.61	66.2154
0	524639	96.71	66.3042
0	525185	96.81	66.3931
0	525731	96.91	66.4819
0	526285	97.01	66.5708
0	526831	97.11	66.6597
0	527377	97.21	66.7485
0	527923	97.31	66.8374
0	528469	97.41	66.9262
0	529015	97.51	67.0151
0	529561	97.61	67.104
0	530107	97.71	67.1928
0	530653	97.81	67.2817
0	531199	97.91	67.3706
0	531753	98.01	67.4595
0	532299	98.11	67.5483
0	532845	98.21	67.6372
0	533391	98.31	67.7261
0	533937	98.41	67.815
0	534483	98.51	67.9038
0	535029	98.61	67.9927
0	535575	98.71	68.0816
0	536121	98.81	68.1705
0	536667	98.91	68.2594
0	537221	99.01	68.3483
0	537767	99.11	68.4372
0	538313	99.21	68.5261
0	538859	99.31	68.6149
0	539405	99.41	68.7038
0	539951	99.51	68.7927
0	540497	99.61	68.8816
0	541043	99.71	68.9705
0	541589	99.81	69.0594
0	542135	99.91	69.1483
1	113	1.11	0
1	659	1.21	0
1	1205	1.31	0
1	1751	1.41	0
1	2297	1.51	0
1	2843	1.61	0
1	3389	1.71	0
1	3935	1.81	0
1	4481	1.91	0
1	5035	2.01	0
1	5581	2.11	0
1	6127	2.21	0
1	6673	2.31	0
1	7219	2.41	0
1	7765	2.51	0
1	8311	2.61	0
1	8857	2.71	0
1	9403	2.81	0
1	9949	2.91	0
1	10503	3.01	0
1	11049	3.11	0
1	11595	3.21	0
1	12141	3.31	0
1	12687	3.41	0
1	13233	3.51	0
1	13779	3.61	0
1	14325	3.71	0
1	14871	3.81	0
1	15417	3.91	0
1	15971	4.01	0
1	16517	4.11	0
1	17063	4.21	0
1	17609	4.31	0
1	18155	4.41	0
1	18701	4.51	0
1	19247	4.61	0
1	19793	4.71	0
1	20339	4.81	0
1	20885	4.91	0
1	21439	5.01	0
1	21985	5.11	0
1	22531	5.21	0
1	23077	5.31	0
1	23623	5.41	0
1	24169	5.51	0
1	24715	5.61	0
1	25261	5.71	0
1	25807	5.81	0
1	26353	5.91	0
1	26907	6.01	0
1	27453	6.11	0
1	27999	6.21	0
1	28545	6.31	0
1	29091	6.41	0
1	29637	6.51	0
1	30183	6.61	0
1	30729	6.71	0
1	31275	6.81	0
1	31821	6.91	0
1	32375	7.01	0
1	32921	7.11	0
1	33467	7.21	0
1	34013	7.31	0
1	34559	7.41	0
1	35105	7.51	0
1	35651	7.61	0
1	36197	7.71	0
1	36743	7.81	0
1	37289	7.91	0
1	37843	8.01	0
1	38389	8.11	0
1	38935	8.21	0
1	39481	8.31	0
1	40027	8.41	0
1	40573	8.51	0
1	41119	8.61	0
1	41665	8.71	0
1	42211	8.81	0
1	42757	8.91	0
1	43311	9.01	0
1	43857	9.11	0
1	44403	9.21	0
1	44949	9.31	0
1	45495	9.41	0
1	46041	9.51	0
1	46587	9.61	0
1	47133	9.71	0
1	47679	9.81	0
1	48225	9.91	0
1	50569	10.01	0
1	51115	10.11	0
1	51661	10.21	0
1	52207	10.31	0
1	52753	10.41	0
1	53299	10.51	0
1	53845	10.61	0
1	54391	10.71	0
1	54937	10.81	0
1	55483	10.91	0
1	56037	11.01	0
1	56583	11.11	0
1	57129	11.21	0
1	57675	11.31	0
1	58221	11.41	0
1	58767	11.51	0
1	59313	11.61	0
1	59859	11.71	0
1	60405	11.81	0
1	60951	11.91	0
1	61505	12.01	0
1	62051	12.11	0
1	62597	12.21	0
1	63143	12.31	0
1	63689	12.41	0
1	64235	12.51	0
1	64781	12.61	0
1	65327	12.71	0
1	65873	12.81	0
1	66419	12.91	0
1	66973	13.01	0
1	67519	13.11	0
1	68065	13.21	0
1	68611	13.31	0
1	69157	13.41	0
1	69703	13.51	0
1	70249	13.61	0
1	70795	13.71	0
1	71341	13.81	0
1	71887	13.91	0
1	72441	14.01	0
1	72987	14.11	0
1	73533	14.21	0
1	74079	14.31	0
1	74625	14.41	0
1	75171	14.51	0
1	75717	14.61	0
1	76263	14.71	0
1	76809	14.81	0
1	77355	14.91	0
1	77909	15.01	0
1	78455	15.11	0
1	79001	15.21	0
1	79547	15.31	0
1	80093	15.41	0
1	80639	15.51	0
1	81185	15.61	0
1	81731	15.71	0
1	82277	15.81	0
1	82823	15.91	0
1	83377	16.01	0
1	83923	16.11	0
1	84469	16.21	0
1	85015	16.31	0
1	85561	16.41	0
1	86107	16.51	0
1	86653	16.61	0
1	87199	16.71	0
1	87745	16.81	0
1	88291	16.91	0
1	88845	17.01	0
1	89391	17.11	0
1	89937	17.21	0
1	90483	17.31	0
1	91029	17.41	0
1	91575	17.51	0
1	92121	17.61	0
1	92667	17.71	0
1	93213	17.81	0
1	93759	17.91	0
1	94313	18.01	0
1	94859	18.11	0
1	95405	18.21	0
1	95951	18.31	0
1	96497	18.41	0
1	97043	18.51	0
1	97589	18.61	0
1	98135	18.71	0
1	98681	18.81	0
1	99227	18.91	0
1	99781	19.01	0
1	100327	19.11	0
1	100873	19.21	0
1	101419	19.31	0
1	101965	19.41	0
1	102511	19.51	0
1	103057	19.61	0
1	103603	19.71	0
1	104149	19.81	0
1	104695	19.91	0
1	105249	20.01	0
1	105795	20.11	0
1	106341	20.21	0
1	106887	20.31	0
1	107433	20.41	0
1	107979	20.51	0
1	108525	20.61	0
1	109071	20.71	0
1	109617	20.81	0
1	110163	20.91	0
1	110717	21.01	0
1	111263	21.11	0
1	111809	21.21	0
1	112355	21.31	0
1	112901	21.41	0
1	113447	21.51	0
1	113993	21.61	0
1	114539	21.71	0
1	115085	21.81	0
1	115631	21.91	0
1	116185	22.01	0
1	116731	22.11	0
1	117277	22.21	0
1	117823	22.31	0
1	118369	22.41	0
1	118915	22.51	0
1	119461	22.61	0
1	120007	22.71	0
1	120553	22.81	0
1	121099	22.91	0
1	121653	23.01	0
1	122199	23.11	0
1	122745	23.21	0
1	123291	23.31	0
1	123837	23.41	0
1	124383	23.51	0
1	124929	23.61	0
1	125475	23.71	0
1	126021	23.81	0
1	126567	23.91	0
1	127121	24.01	0
1	127667	24.11	0
1	128213	24.21	0
1	128759	24.31	0
1	129305	24.41	0
1	129851	24.51	0
1	130397	24.61	0
1	130943	24.71	0
1	131489	24.81	0
1	132035	24.91	0
1	132589	25.01	0
1	133135	25.11	0
1	133681	25.21	0
1	134227	25.31	0
1	134773	25.41	0
1	135319	25.51	0
1	135865	25.61	0
1	136411	25.71	0
1	136957	25.81	0
1	137503	25.91	0
1	138057	26.01	0
1	138603	26.11	0
1	139149	26.21	0
1	139695	26.31	0
1	140241	26.41	0
1	140787	26.51	0
1	141333	26.61	0
1	141879	26.71	0
1	142425	26.81	0
1	142971	26.91	0
1	143525	27.01	0
1	144071	27.11	0
1	144617	27.21	0
1	145163	27.31	0
1	145709	27.41	0
1	146255	27.51	0
1	146801	27.61	0
1	147347	27.71	0
1	147893	27.81	0
1	148439	27.91	0
1	148993	28.01	0
1	149539	28.11	0
1	150085	28.21	0
1	150631	28.31	0
1	151177	28.41	0
1	151723	28.51	0
1	152269	28.61	0
1	152815	28.71	0
1	153361	28.81	0
1	153907	28.91	0
1	154461	29.01	0
1	155007	29.11	0
1	155553	29.21	0
1	156099	29.31	0
1	156645	29.41	0
1	157191	29.51	0
1	157737	29.61	0
1	158283	29.71	0
1	158829	29.81	0
1	159375	29.91	0
1	159929	30.01	0
1	160475	30.11	0
1	161021	30.21	0
1	161567	30.31	0
1	162113	30.41	0
1	162659	30.51	0
1	163205	30.61	0
1	163751	30.71	0
1	164297	30.81	0
1	164843	30.91	0
1	165397	31.01	0
1	165943	31.11	0
1	166489	31.21	0
1	167035	31.31	0
1	167581	31.41	0
1	168127	31.51	0
1	168673	31.61	0
1	169219	31.71	0
1	169765	31.81	0
1	170311	31.91	0
1	170865	32.01	0
1	171411	32.11	0
1	171957	32.21	0
1	172503	32.31	0
1	173049	32.41	0
1	173595	32.51	0
1	174141	32.61	0
1	174687	32.71	0
1	175233	32.81	0
1	175779	32.91	0
1	176333	33.01	0
1	176879	33.11	0
1	177425	33.21	0
1	177971	33.31	0
1	178517	33.41	0
1	179063	33.51	0
1	179609	33.61	0
1	180155	33.71	0
1	180701	33.81	0
1	181247	33.91	0
1	181801	34.01	0
1	182347	34.11	0
1	182893	34.21	0
1	183439	34.31	0
1	183985	34.41	0
1	184531	34.51	0
1	185077	34.61	0
1	185623	34.71	0
1	186169	34.81	0
1	186715	34.91	0
1	187269	35.01	0
1	187815	35.11	0
1	188361	35.21	0
1	188907	35.31	0
1	189453	35.41	0
1	189999	35.51	0
1	190545	35.61	0
1	191091	35.71	0
1	191637	35.81	0
1	192183	35.91	0
1	192737	36.01	0
1	193283	36.11	0
1	193829	36.21	0
1	194375	36.31	0
1	194921	36.41	0
1	195467	36.51	0
1	196013	36.61	0
1	196559	36.71	0
1	197105	36.81	0
1	197651	36.91	0
1	198205	37.01	0
1	198751	37.11	0
1	199297	37.21	0
1	199843	37.31	0
1	200389	37.41	0
1	200935	37.51	0
1	201481	37.61	0
1	202027	37.71	0
1	202573	37.81	0
1	203119	37.91	0
1	203673	38.01	0
1	204219	38.11	0
1	204765	38.21	0
1	205311	38.31	0
1	205857	38.41	0
1	206403	38.51	0
1	206949	38.61	0
1	207495	38.71	0
1	208041	38.81	0
1	208587	38.91	0
1	209141	39.01	0
1	209687	39.11	0
1	210233	39.21	0
1	210779	39.31	0
1	211325	39.41	0
1	211871	39.51	0
1	212417	39.61	0
1	212963	39.71	0
1	213509	39.81	0
1	214055	39.91	0
1	214609	40.01	0
1	215155	40.11	0
1	215701	40.21	0
1	216247	40.31	0
1	216793	40.41	0
1	217339	40.51	0
1	217885	40.61	0
1	218431	40.71	0
1	218977	40.81	0
1	219523	40.91	0
1	220077	41.01	0
1	220623	41.11	0
1	221169	41.21	0
1	221715	41.31	0
1	222261	41.41	0
1	222807	41.51	0
1	223353	41.61	0
1	223899	41.71	0
1	224445	41.81	0
1	224991	41.91	0
1	225545	42.01	0
1	226091	42.11	0
1	226637	42.21	0
1	227183	42.31	0
1	227729	42.41	0
1	228275	42.51	0
1	228821	42.61	0
1	229367	42.71	0
1	229913	42.81	0
1	230459	42.91	0
1	231013	43.01	0
1	231559	43.11	0
1	232105	43.21	0
1	232651	43.31	0
1	233197	43.41	0
1	233743	43.51	0
1	234289	43.61	0
1	234835	43.71	0
1	235381	43.81	0
1	235927	43.91	0
1	236481	44.01	0
1	237027	44.11	0
1	237573	44.21	0
1	238119	44.31	0
1	238665	44.41	0
1	239211	44.51	0
1	239757	44.61	0
1	240303	44.71	0
1	240849	44.81	0
1	241395	44.91	0
1	241949	45.01	0
1	242495	45.11	0
1	243041	45.21	0
1	243587	45.31	0
1	244133	45.41	0
1	244679	45.51	0
1	245225	45.61	0
1	245771	45.71	0
1	246317	45.81	0
1	246863	45.91	0
1	247417	46.01	0
1	247963	46.11	0
1	248509	46.21	0
1	249055	46.31	0
1	249601	46.41	0
1	250147	46.51	0
1	250693	46.61	0
1	251239	46.71	0
1	251785	46.81	0
1	252331	46.91	0
1	252885	47.01	0
1	253431	47.11	0
1	253977	47.21	0
1	254523	47.31	0
1	255069	47.41	0
1	255615	47.51	0
1	256161	47.61	0
1	256707	47.71	0
1	257253	47.81	0
1	257799	47.91	0
1	258353	48.01	0
1	258899	48.11	0
1	259445	48.21	0
1	259991	48.31	0
1	260537	48.41	0
1	261083	48.51	0
1	261629	48.61	0
1	262175	48.71	0
1	262721	48.81	0
1	263267	48.91	0
1	263821	49.01	0
1	264367	49.11	0
1	264913	49.21	0
1	265459	49.31	0
1	266005	49.41	0
1	266551	49.51	0
1	267097	49.61	0
1	267643	49.71	0
1	268189	49.81	0
1	268735	49.91	0
1	269289	50.01	0
1	269835	50.11	0
1	270381	50.21	0
1	270927	50.31	0
1	271473	50.41	0
1	272019	50.51	0
1	272565	50.61	0
1	273111	50.71	0
1	273657	50.81	0
1	274203	50.91	0
1	274757	51.01	0
1	275303	51.11	0
1	275849	51.21	0
1	276395	51.31	0
1	276941	51.41	0
1	277487	51.51	0
1	278033	51.61	0
1	278579	51.71	0
1	279125	51.81	0
1	279671	51.91	0
1	280225	52.01	0
1	280771	52.11	0
1	281317	52.21	0
1	281863	52.31	0
1	282409	52.41	0
1	282955	52.51	0
1	283501	52.61	0
1	284047	52.71	0
1	284593	52.81	0
1	285139	52.91	0
1	285693	53.01	0
1	286239	53.11	0
1	286785	53.21	0
1	287331	53.31	0
1	287877	53.41	0
1	288423	53.51	0
1	288969	53.61	0
1	289515	53.71	0
1	290061	53.81	0
1	290607	53.91	0
1	291161	54.01	0
1	291707	54.11	0
1	292253	54.21	0
1	292799	54.31	0
1	293345	54.41	0
1	293891	54.51	0
1	294437	54.61	0
1	294983	54.71	0
1	295529	54.81	0
1	296075	54.91	0
1	296629	55.01	0
1	297175	55.11	0
1	297721	55.21	0
1	298267	55.31	0
1	298813	55.41	0
1	299359	55.51	0
1	299905	55.61	0
1	300451	55.71	0
1	300997	55.81	0
1	301543	55.91	0
1	302097	56.01	0
1	302643	56.11	0
1	303189	56.21	0
1	303735	56.31	0
1	304281	56.41	0
1	304827	56.51	0
1	305373	56.61	0
1	305919	56.71	0
1	306465	56.81	0
1	307011	56.91	0
1	307565	57.01	0
1	308111	57.11	0
1	308657	57.21	0
1	309203	57.31	0
1	309749	57.41	0
1	310295	57.51	0
1	310841	57.61	0
1	311387	57.71	0
1	311933	57.81	0
1	312479	57.91	0
1	313033	58.01	0
1	313579	58.11	0
1	314125	58.21	0
1	314671	58.31	0
1	315217	58.41	0
1	315763	58.51	0
1	316309	58.61	0
1	316855	58.71	0
1	317401	58.81	0
1	317947	58.91	0.88953
1	318501	59.01	0.89504
1	319047	59.11	0.905161
1	319593	59.21	0.918762
1	320139	59.31	0.934852
1	320685	59.41	0.952578
1	321231	59.51	0.971206
1	321777	59.61	0.99012
1	322323	59.71	1.00881
1	322869	59.81	1.02684
1	323415	59.91	1.04389
1	323969	60.01	1.05968
1	324515	60.11	1.07403
1	325061	60.21	1.08679
1	325607	60.31	1.09788
1	326153	60.41	1.10724
1	326699	60.51	1.11486
1	327245	60.61	1.12076
1	327791	60.71	1.12499
1	328337	60.81	1.12761
1	328883	60.91	1.12869
1	329437	61.01	1.12832
1	329983	61.11	1.12661
1	330529	61.21	1.12365
1	331075	61.31	1.11954
1	331621	61.41	1.11441
1	332167	61.51	1.10834
1	332713	61.61	1.10144
1	333259	61.71	1.09382
1	333805	61.81	1.08556
1	334351	61.91	1.07676
1	334905	62.01	1.06749
1	335451	62.11	1.05785
1	335997	62.21	1.04789
1	336543	62.31	1.03768
1	337089	62.41	1.02729
1	337635	62.51	1.01676
1	338181	62.61	1.00615
1	338727	62.71	0.99549
1	339273	62.81	0.984857
1	339819	62.91	0.974414
1	340373	63.01	0.964313
1	340919	63.11	0.954674
1	341465	63.21	0.945587
1	342011	63.31	0.937116
1	342557	63.41	0.929301
1	343103	63.51	0.922166
1	343649	63.61	0.915717
1	344195	63.71	0.909944
1	344741	63.81	0.904832
1	345287	63.91	0.900352
1	345841	64.01	0.896472
1	346387	64.11	0.893152
1	346933	64.21	0.890353
1	347479	64.31	0.888031
1	348025	64.41	0.886142
1	348571	64.51	0.884641
1	349117	64.61	0.883486
1	349663	64.71	0.882636
1	350209	64.81	0.882051
1	350755	64.91	0.881694
1	351309	65.01	0.88153
1	351855	65.11	0.881528
1	352401	65.21	0.881659
1	352947	65.31	0.881896
1	353493	65.41	0.882216
1	354039	65.51	0.882598
1	354585	65.61	0.883025
1	355131	65.71	0.88348
1	355677	65.81	0.883951
1	356223	65.91	0.884426
1	356777	66.01	0.884896
1	357323	66.11	0.885353
1	357869	66.21	0.885792
1	358415	66.31	0.886208
1	358961	66.41	0.886597
1	359507	66.51	0.886958
1	360053	66.61	0.887288
1	360599	66.71	0.887589
1	361145	66.81	0.887858
1	361691	66.91	0.888098
1	362245	67.01	0.88831
1	362791	67.11	0.888494
1	363337	67.21	0.888652
1	363883	67.31	0.888786
1	364429	67.41	0.888898
1	364975	67.51	0.88899
1	365521	67.61	0.889064
1	366067	67.71	0.889122
1	366613	67.81	0.889165
1	367159	67.91	0.889196
1	367713	68.01	0.889216
1	368259	68.11	0.889226
1	368805	68.21	0.889229
1	369351	68.31	0.889226
1	369897	68.41	0.889217
1	370443	68.51	0.889204
1	370989	68.61	0.889188
1	371535	68.71	0.88917
1	372081	68.81	0.88915
1	372627	68.91	0.889129
1	373181	69.01	0.889108
1	373727	69.11	0.889087
1	374273	69.21	0.889066
1	374819	69.31	0.889047
1	375365	69.41	0.889028
1	375911	69.51	0.88901
1	376457	69.61	0.888993
1	377003	69.71	0.888978
1	377549	69.81	0.888964
1	378095	69.91	0.888951
1	378649	70.01	0.88894
1	379195	70.11	0.88893
1	379741	70.21	0.888921
1	380287	70.31	0.888914
1	380833	70.41	0.888907
1	381379	70.51	0.888902
1	381925	70.61	0.888898
1	382471	70.71	0.888894
1	383017	70.81	0.888891
1	383563	70.91	0.888889
1	384117	71.01	0.888887
1	384663	71.11	0.888886
1	385209	71.21	0.888886
1	385755	71.31	0.888885
1	386301	71.41	0.888885
1	386847	71.51	0.888886
1	387393	71.61	0.888886
1	387939	71.71	0.888887
1	388485	71.81	0.888888
1	389031	71.91	0.888888
1	389585	72.01	0.888889
1	390131	72.11	0.88889
1	390677	72.21	0.888891
1	391223	72.31	0.888892
1	391769	72.41	0.888893
1	392315	72.51	0.888894
1	392861	72.61	0.888895
1	393407	72.71	0.888896
1	393953	72.81	0.888896
1	394499	72.91	0.888897
1	395053	73.01	0.888897
1	395599	73.11	0.888898
1	396145	73.21	0.888898
1	396691	73.31	0.888899
1	397237	73.41	0.888899
1	397783	73.51	0.8889
1	398329	73.61	0.8889
1	398875	73.71	0.8889
1	399421	73.81	0.8889
1	399967	73.91	0.8889
1	400521	74.01	0.8889
1	401067	74.11	0.888901
1	401613	74.21	0.888901
1	402159	74.31	0.888901
1	402705	74.41	0.888901
1	403251	74.51	0.888901
1	403797	74.61	0.888901
1	404343	74.71	0.888901
1	404889	74.81	0.888901
1	405435	74.91	0.888901
1	405989	75.01	0.888901
1	406535	75.11	0.8889
1	407081	75.21	0.8889
1	407627	75.31	0.8889
1	408173	75.41	0.8889
1	408719	75.51	0.8889
1	409265	75.61	0.8889
1	409811	75.71	0.8889
1	410357	75.81	0.8889
1	410903	75.91	0.8889
1	411457	76.01	0.8889
1	412003	76.11	0.8889
1	412549	76.21	0.8889
1	413095	76.31	0.8889
1	413641	76.41	0.8889
1	414187	76.51	0.8889
1	414733	76.61	0.8889
1	415279	76.71	0.8889
1	415825	76.81	0.8889
1	416371	76.91	0.8889
1	416925	77.01	0.8889
1	417471	77.11	0.8889
1	418017	77.21	0.8889
1	418563	77.31	0.8889
1	419109	77.41	0.8889
1	419655	77.51	0.8889
1	420201	77.61	0.8889
1	420747	77.71	0.8889
1	421293	77.81	0.8889
1	421839	77.91	0.8889
1	422393	78.01	0.8889
1	422939	78.11	0.8889
1	423485	78.21	0.8889
1	424031	78.31	0.8889
1	424577	78.41	0.8889
1	425123	78.51	0.8889
1	425669	78.61	0.8889
1	426215	78.71	0.8889
1	426761	78.81	0.8889
1	427307	78.91	0.8889
1	427861	79.01	0.8889
1	428407	79.11	0.8889
1	428953	79.21	0.8889
1	429499	79.31	0.8889
1	430045	79.41	0.8889
1	430591	79.51	0.8889
1	431137	79.61	0.8889
1	431683	79.71	0.8889
1	432229	79.81	0.8889
1	432775	79.91	0.8889
1	433329	80.01	0.8889
1	433875	80.11	0.8889
1	434421	80.21	0.8889
1	434967	80.31	0.8889
1	435513	80.41	0.8889
1	436059	80.51	0.8889
1	436605	80.61	0.8889
1	437151	80.71	0.8889
1	437697	80.81	0.8889
1	438243	80.91	0.8889
1	438797	81.01	0.8889
1	439343	81.11	0.8889
1	439889	81.21	0.8889
1	440435	81.31	0.8889
1	440981	81.41	0.8889
1	441527	81.51	0.8889
1	442073	81.61	0.8889
1	442619	81.71	0.8889
1	443165	81.81	0.8889
1	443711	81.91	0.8889
1	444265	82.01	0.8889
1	444811	82.11	0.8889
1	445357	82.21	0.8889
1	445903	82.31	0.8889
1	446449	82.41	0.8889
1	446995	82.51	0.8889
1	447541	82.61	0.8889
1	448087	82.71	0.8889
1	448633	82.81	0.8889
1	449179	82.91	0.8889
1	449733	83.01	0.8889
1	450279	83.11	0.8889
1	450825	83.21	0.8889
1	451371	83.31	0.8889
1	451917	83.41	0.8889
1	452463	83.51	0.8889
1	453009	83.61	0.8889
1	453555	83.71	0.8889
1	454101	83.81	0.8889
1	454647	83.91	0.8889
1	455201	84.01	0.8889
1	455747	84.11	0.8889
1	456293	84.21	0.8889
1	456839	84.31	0.8889
1	457385	84.41	0.8889
1	457931	84.51	0.8889
1	458477	84.61	0.8889
1	459023	84.71	0.8889
1	459569	84.81	0.8889
1	460115	84.91	0.8889
1	460669	85.01	0.8889
1	461215	85.11	0.8889
1	461761	85.21	0.8889
1	462307	85.31	0.8889
1	462853	85.41	0.8889
1	463399	85.51	0.8889
1	463945	85.61	0.8889
1	464491	85.71	0.8889
1	465037	85.81	0.8889
1	465583	85.91	0.8889
1	466137	86.01	0.8889
1	466683	86.11	0.8889
1	467229	86.21	0.8889
1	467775	86.31	0.8889
1	468321	86.41	0.8889
1	468867	86.51	0.8889
1	469413	86.61	0.8889
1	469959	86.71	0.8889
1	470505	86.81	0.8889
1	471051	86.91	0.8889
1	471605	87.01	0.8889
1	472151	87.11	0.8889
1	472697	87.21	0.8889
1	473243	87.31	0.8889
1	473789	87.41	0.8889
1	474335	87.51	0.8889
1	474881	87.61	0.8889
1	475427	87.71	0.8889
1	475973	87.81	0.8889
1	476519	87.91	0.8889
1	477073	88.01	0.8889
1	477619	88.11	0.8889
1	478165	88.21	0.886914
1	478711	88.31	0.880166
1	479257	88.41	0.869726
1	479803	88.51	0.856584
1	480349	88.61	0.841599
1	480895	88.71	0.825507
1	481441	88.81	0.808936
1	481987	88.91	0.792408
1	482541	89.01	0.776356
1	483087	89.11	0.761128
1	483633	89.21	0.746998
1	484179	89.31	0.734176
1	484725	89.41	0.722812
1	485271	89.51	0.713008
1	485817	89.61	0.704824
1	486363	89.71	0.698282
1	486909	89.81	0.693373
1	487455	89.91	0.690066
1	488009	90.01	0.688306
1	488555	90.11	0.688024
1	489101	90.21	0.68914
1	489647	90.31	0.691562
1	490193	90.41	0.695195
1	490739	90.51	0.699938
1	491285	90.61	0.705692
1	491831	90.71	0.712356
1	492377	90.81	0.71983
1	492923	90.91	0.72802
1	493477	91.01	0.736834
1	494023	91.11	0.746184
1	494569	91.21	0.755991
1	495115	91.31	0.766177
1	495661	91.41	0.776664
1	496207	91.51	0.787279
1	496753	91.61	0.797809
1	497299	91.71	0.808082
1	497845	91.81	0.817958
1	498391	91.91	0.827333
1	498945	92.01	0.836128
1	499491	92.11	0.844289
1	500037	92.21	0.851784
1	500583	92.31	0.858598
1	501129	92.41	0.864732
1	501675	92.51	0.870197
1	502221	92.61	0.875016
1	502767	92.71	0.879218
1	503313	92.81	0.882839
1	503859	92.91	0.885918
1	504413	93.01	0.888498
1	504959	93.11	0.890621
1	505505	93.21	0.892332
1	506051	93.31	0.893674
1	506597	93.41	0.894689
1	507143	93.51	0.895418
1	507689	93.61	0.895899
1	508235	93.71	0.896168
1	508781	93.81	0.896259
1	509327	93.91	0.896201
1	509881	94.01	0.896023
1	510427	94.11	0.895749
1	510973	94.21	0.895401
1	511519	94.31	0.894999
1	512065	94.41	0.89456
1	512611	94.51	0.894099
1	513157	94.61	0.893627
1	513703	94.71	0.893155
1	514249	94.81	0.892691
1	514795	94.91	0.892243
1	515349	95.01	0.891815
1	515895	95.11	0.891412
1	516441	95.21	0.891036
1	516987	95.31	0.89069
1	517533	95.41	0.890373
1	518079	95.51	0.890087
1	518625	95.61	0.889832
1	519171	95.71	0.889605
1	519717	95.81	0.889406
1	520263	95.91	0.889234
1	520817	96.01	0.889087
1	521363	96.11	0.888963
1	521909	96.21	0.88886
1	522455	96.31	0.888777
1	523001	96.41	0.88871
1	523547	96.51	0.888659
1	524093	96.61	0.888622
1	524639	96.71	0.888596
1	525185	96.81	0.88858
1	525731	96.91	0.888573
1	526285	97.01	0.888573
1	526831	97.11	0.888579
1	527377	97.21	0.888589
1	527923	97.31	0.888603
1	528469	97.41	0.88862
1	529015	97.51	0.888639
1	529561	97.61	0.88866
1	530107	97.71	0.888681
1	530653	97.81	0.888702
1	531199	97.91	0.888722
1	531753	98.01	0.888743
1	532299	98.11	0.888762
1	532845	98.21	0.888781
1	533391	98.31	0.888798
1	533937	98.41	0.888814
1	534483	98.51	0.888829
1	535029	98.61	0.888842
1	535575	98.71	0.888854
1	536121	98.81	0.888865
1	536667	98.91	0.888874
1	537221	99.01	0.888882
1	537767	99.11	0.888889
1	538313	99.21	0.888895
1	538859	99.31	0.8889
1	539405	99.41	0.888904
1	539951	99.51	0.888907
1	540497	99.61	0.88891
1	541043	99.71	0.888912
1	541589	99.81	0.888913
1	542135	99.91	0.888914
2	113	1.11	0
2	659	1.21	0
2	1205	1.31	0
2	1751	1.41	0
2	2297	1.51	0
2	2843	1.61	0
2	3389	1.71	0
2	3935	1.81	0
2	4481	1.91	0
2	5035	2.01	0
2	5581	2.11	0
2	6127	2.21	0
2	6673	2.31	0
2	7219	2.41	0
2	7765	2.51	0
2	8311	2.61	0
2	8857	2.71	0
2	9403	2.81	0
2	9949	2.91	0
2	10503	3.01	0
2	11049	3.11	0
2	11595	3.21	0
2	12141	3.31	0
2	12687	3.41	0
2	13233	3.51	0
2	13779	3.61	0
2	14325	3.71	0
2	14871	3.81	0
2	15417	3.91	0
2	15971	4.01	0
2	16517	4.11	0
2	17063	4.21	0
2	17609	4.31	0
2	18155	4.41	0
2	18701	4.51	0
2	19247	4.61	0
2	19793	4.71	0
2	20339	4.81	0
2	20885	4.91	0
2	21439	5.01	0
2	21985	5.11	0
2	22531	5.21	0
2	23077	5.31	0
2	23623	5.41	0
2	24169	5.51	0
2	24715	5.61	0
2	25261	5.71	0
2	25807	5.81	0
2	26353	5.91	0
2	26907	6.01	0
2	27453	6.11	0
2	27999	6.21	0
2	28545	6.31	0
2	29091	6.41	0
2	29637	6.51	0
2	30183	6.61	0
2	30729	6.71	0
2	31275	6.81	0
2	31821	6.91	0
2	32375	7.01	0
2	32921	7.11	0
2	33467	7.21	0
2	34013	7.31	0
2	34559	7.41	0
2	35105	7.51	0
2	35651	7.61	0
2	36197	7.71	0
2	36743	7.81	0
2	37289	7.91	0
2	37843	8.01	0
2	38389	8.11	0
2	38935	8.21	0
2	39481	8.31	0
2	40027	8.41	0
2	40573	8.51	0
2	41119	8.61	0
2	41665	8.71	0
2	42211	8.81	0
2	42757	8.91	0
2	43311	9.01	0
2	43857	9.11	0
2	44403	9.21	0
2	44949	9.31	0
2	45495	9.41	0
2	46041	9.51	0
2	46587	9.61	0
2	47133	9.71	0
2	47679	9.81	0
2	48225	9.91	0
2	50569	10.01	0
2	51115	10.11	0
2	51661	10.21	0
2	52207	10.31	0
2	52753	10.41	0
2	53299	10.51	0
2	53845	10.61	0
2	54391	10.71	0
2	54937	10.81	0
2	55483	10.91	0
2	56037	11.01	0
2	56583	11.11	0
2	57129	11.21	0
2	57675	11.31	0
2	58221	11.41	0
2	58767	11.51	0
2	59313	11.61	0
2	59859	11.71	0
2	60405	11.81	0
2	60951	11.91	0
2	61505	12.01	0
2	62051	12.11	0
2	62597	12.21	0
2	63143	12.31	0
2	63689	12.41	0
2	64235	12.51	0
2	64781	12.61	0
2	65327	12.71	0
2	65873	12.81	0
2	66419	12.91	0
2	66973	13.01	0
2	67519	13.11	0
2	68065	13.21	0
2	68611	13.31	0
2	69157	13.41	0
2	69703	13.51	0
2	70249	13.61	0
2	70795	13.71	0
2	71341	13.81	0
2	71887	13.91	0
2	72441	14.01	0
2	72987	14.11	0
2	73533	14.21	0
2	74079	14.31	0
2	74625	14.41	0
2	75171	14.51	0
2	75717	14.61	0
2	76263	14.71	0
2	76809	14.81	0
2	77355	14.91	0
2	77909	15.01	0
2	78455	15.11	0
2	79001	15.21	0
2	79547	15.31	0
2	80093	15.41	0
2	80639	15.51	0
2	81185	15.61	0
2	81731	15.71	0
2	82277	15.81	0
2	82823	15.91	0
2	83377	16.01	0
2	83923	16.11	0
2	84469	16.21	0
2	85015	16.31	0
2	85561	16.41	0
2	86107	16.51	0
2	86653	16.61	0
2	87199	16.71	0
2	87745	16.81	0
2	88291	16.91	0
2	88845	17.01	0
2	89391	17.11	0
2	89937	17.21	0
2	90483	17.31	0
2	91029	17.41	0
2	91575	17.51	0
2	92121	17.61	0
2	92667	17.71	0
2	93213	17.81	0
2	93759	17.91	0
2	94313	18.01	0
2	94859	18.11	0
2	95405	18.21	0
2	95951	18.31	0
2	96497	18.41	0
2	97043	18.51	0
2	97589	18.61	0
2	98135	18.71	0
2	98681	18.81	0
2	99227	18.91	0
2	99781	19.01	0
2	100327	19.11	0
2	100873	19.21	0
2	101419	19.31	0
2	101965	19.41	0
2	102511	19.51	0
2	103057	19.61	0
2	103603	19.71	0
2	104149	19.81	0
2	104695	19.91	0
2	105249	20.01	0
2	105795	20.11	0
2	106341	20.21	0
2	106887	20.31	0
2	107433	20.41	0
2	107979	20.51	0
2	108525	20.61	0
2	109071	20.71	0
2	109617	20.81	0
2	110163	20.91	0
2	110717	21.01	0
2	111263	21.11	0
2	111809	21.21	0
2	112355	21.31	0
2	112901	21.41	0
2	113447	21.51	0
2	113993	21.61	0
2	114539	21.71	0
2	115085	21.81	0
2	115631	21.91	0
2	116185	22.01	0
2	116731	22.11	0
2	117277	22.21	0
2	117823	22.31	0
2	118369	22.41	0
2	118915	22.51	0
2	119461	22.61	0
2	120007	22.71	0
2	120553	22.81	0
2	121099	22.91	0
2	121653	23.01	0
2	122199	23.11	0
2	122745	23.21	0
2	123291	23.31	0
2	123837	23.41	0
2	124383	23.51	0
2	124929	23.61	0
2	125475	23.71	0
2	126021	23.81	0
2	126567	23.91	0
2	127121	24.01	0
2	127667	24.11	0
2	128213	24.21	0
2	128759	24.31	0
2	129305	24.41	0
2	129851	24.51	0
2	130397	24.61	0
2	130943	24.71	0
2	131489	24.81	0
2	132035	24.91	0
2	132589	25.01	0
2	133135	25.11	0
2	133681	25.21	0
2	134227	25.31	0
2	134773	25.41	0
2	135319	25.51	0
2	135865	25.61	0
2	136411	25.71	0
2	136957	25.81	0
2	137503	25.91	0
2	138057	26.01	0
2	138603	26.11	0
2	139149	26.21	0
2	139695	26.31	0
2	140241	26.41	0
2	140787	26.51	0
2	141333	26.61	0
2	141879	26.71	0
2	142425	26.81	0
2	142971	26.91	0
2	143525	27.01	0
2	144071	27.11	0
2	144617	27.21	0
2	145163	27.31	0
2	145709	27.41	0
2	146255	27.51	0
2	146801	27.61	0
2	147347	27.71	0
2	147893	27.81	0
2	148439	27.91	0
2	148993	28.01	0
2	149539	28.11	0
2	150085	28.21	0
2	150631	28.31	0
2	151177	28.41	0
2	151723	28.51	0
2	152269	28.61	0
2	152815	28.71	0
2	153361	28.81	0
2	153907	28.91	0
2	154461	29.01	0
2	155007	29.11	0
2	155553	29.21	0
2	156099	29.31	0
2	156645	29.41	0
2	157191	29.51	0
2	157737	29.61	0
2	158283	29.71	0
2	158829	29.81	0
2	159375	29.91	0
2	159929	30.01	0
2	160475	30.11	0
2	161021	30.21	0
2	161567	30.31	0
2	162113	30.41	0
2	162659	30.51	0
2	163205	30.61	0
2	163751	30.71	0
2	164297	30.81	0
2	164843	30.91	0
2	165397	31.01	0
2	165943	31.11	0
2	166489	31.21	0
2	167035	31.31	0
2	167581	31.41	0
2	168127	31.51	0
2	168673	31.61	0
2	169219	31.71	0
2	169765	31.81	0
2	170311	31.91	0
2	170865	32.01	0
2	171411	32.11	0
2	171957	32.21	0
2	172503	32.31	0
2	173049	32.41	0
2	173595	32.51	0
2	174141	32.61	0
2	174687	32.71	0
2	175233	32.81	0
2	175779	32.91	0
2	176333	33.01	0
2	176879	33.11	0
2	177425	33.21	0
2	177971	33.31	0
2	178517	33.41	0
2	179063	33.51	0
2	179609	33.61	0
2	180155	33.71	0
2	180701	33.81	0
2	181247	33.91	0
2	181801	34.01	0
2	182347	34.11	0
2	182893	34.21	0
2	183439	34.31	0
2	183985	34.41	0
2	184531	34.51	0
2	185077	34.61	0
2	185623	34.71	0
2	186169	34.81	0
2	186715	34.91	0
2	187269	35.01	0
2	187815	35.11	0
2	188361	35.21	0
2	188907	35.31	0
2	189453	35.41	0
2	189999	35.51	0
2	190545	35.61	0
2	191091	35.71	0
2	191637	35.81	0
2	192183	35.91	0
2	192737	36.01	0
2	193283	36.11	0
2	193829	36.21	0
2	194375	36.31	0
2	194921	36.41	0
2	195467	36.51	0
2	196013	36.61	0
2	196559	36.71	0
2	197105	36.81	0
2	197651	36.91	0
2	198205	37.01	0
2	198751	37.11	0
2	199297	37.21	0
2	199843	37.31	0
2	200389	37.41	0
2	200935	37.51	0
2	201481	37.61	0
2	202027	37.71	0
2	202573	37.81	0
2	203119	37.91	0
2	203673	38.01	0
2	204219	38.11	0
2	204765	38.21	0
2	205311	38.31	0
2	205857	38.41	0
2	206403	38.51	0
2	206949	38.61	0
2	207495	38.71	0
2	208041	38.81	0
2	208587	38.91	0
2	209141	39.01	0
2	209687	39.11	0
2	210233	39.21	0
2	210779	39.31	0
2	211325	39.41	0
2	211871	39.51	0
2	212417	39.61	0
2	212963	39.71	0
2	213509	39.81	0
2	214055	39.91	0
2	214609	40.01	0
2	215155	40.11	0
2	215701	40.21	0
2	216247	40.31	0
2	216793	40.41	0
2	217339	40.51	0
2	217885	40.61	0
2	218431	40.71	0
2	218977	40.81	0
2	219523	40.91	0
2	220077	41.01	0
2	220623	41.11	0
2	221169	41.21	0
2	221715	41.31	0
2	222261	41.41	0
2	222807	41.51	0
2	223353	41.61	0
2	223899	41.71	0
2	224445	41.81	0
2	224991	41.91	0
2	225545	42.01	0
2	226091	42.11	0
2	226637	42.21	0
2	227183	42.31	0
2	227729	42.41	0
2	228275	42.51	0
2	228821	42.61	0
2	229367	42.71	0
2	229913	42.81	0
2	230459	42.91	0
2	231013	43.01	0
2	231559	43.11	0
2	232105	43.21	0
2	232651	43.31	0
2	233197	43.41	0
2	233743	43.51	0
2	234289	43.61	0
2	234835	43.71	0
2	235381	43.81	0
2	235927	43.91	0
2	236481	44.01	0
2	237027	44.11	0
2	237573	44.21	0
2	238119	44.31	0
2	238665	44.41	0
2	239211	44.51	0
2	239757	44.61	0
2	240303	44.71	0
2	240849	44.81	0
2	241395	44.91	0
2	241949	45.01	0
2	242495	45.11	0
2	243041	45.21	0
2	243587	45.31	0
2	244133	45.41	0
2	244679	45.51	0
2	245225	45.61	0
2	245771	45.71	0
2	246317	45.81	0
2	246863	45.91	0
2	247417	46.01	0
2	247963	46.11	0
2	248509	46.21	0
2	249055	46.31	0
2	249601	46.41	0
2	250147	46.51	0
2	250693	46.61	0
2	251239	46.71	0
2	251785	46.81	0
2	252331	46.91	0
2	252885	47.01	0
2	253431	47.11	0
2	253977	47.21	0
2	254523	47.31	0
2	255069	47.41	0
2	255615	47.51	0
2	256161	47.61	0
2	256707	47.71	0
2	257253	47.81	0
2	257799	47.91	0
2	258353	48.01	0
2	258899	48.11	0
2	259445	48.21	0
2	259991	48.31	0
2	260537	48.41	0
2	261083	48.51	0
2	261629	48.61	0
2	262175	48.71	0
2	262721	48.81	0
2	263267	48.91	0
2	263821	49.01	0
2	264367	49.11	0
2	264913	49.21	0
2	265459	49.31	0
2	266005	49.41	0
2	266551	49.51	0
2	267097	49.61	0
2	267643	49.71	0
2	268189	49.81	0
2	268735	49.91	0
2	269289	50.01	0
2	269835	50.11	0
2	270381	50.21	0
2	270927	50.31	0
2	271473	50.41	0
2	272019	50.51	0
2	272565	50.61	0
2	273111	50.71	0
2	273657	50.81	0
2	274203	50.91	0
2	274757	51.01	0
2	275303	51.11	0
2	275849	51.21	0
2	276395	51.31	0
2	276941	51.41	0
2	277487	51.51	0
2	278033	51.61	0
2	278579	51.71	0
2	279125	51.81	0
2	279671	51.91	0
2	280225	52.01	0
2	280771	52.11	0
2	281317	52.21	0
2	281863	52.31	0
2	282409	52.41	0
2	282955	52.51	0
2	283501	52.61	0
2	284047	52.71	0
2	284593	52.81	0
2	285139	52.91	0
2	285693	53.01	0
2	286239	53.11	0
2	286785	53.21	0
2	287331	53.31	0
2	287877	53.41	0
2	288423	53.51	0
2	288969	53.61	0
2	289515	53.71	0
2	290061	53.81	0
2	290607	53.91	0
2	291161	54.01	0
2	291707	54.11	0
2	292253	54.21	0
2	292799	54.31	0
2	293345	54.41	0
2	293891	54.51	0
2	294437	54.61	0
2	294983	54.71	0
2	295529	54.81	0
2	296075	54.91	0
2	296629	55.01	0
2	297175	55.11	0
2	297721	55.21	0
2	298267	55.31	0
2	298813	55.41	0
2	299359	55.51	0
2	299905	55.61	0
2	300451	55.71	0
2	300997	55.81	0
2	301543	55.91	0
2	302097	56.01	0
2	302643	56.11	0
2	303189	56.21	0
2	303735	56.31	0
2	304281	56.41	0
2	304827	56.51	0
2	305373	56.61	0
2	305919	56.71	0
2	306465	56.81	0
2	307011	56.91	0
2	307565	57.01	0
2	308111	57.11	0
2	308657	57.21	0
2	309203	57.31	0
2	309749	57.41	0
2	310295	57.51	0
2	310841	57.61	0
2	311387	57.71	0
2	311933	57.81	0
2	312479	57.91	0
2	313033	58.01	0
2	313579	58.11	0
2	314125	58.21	0
2	314671	58.31	0
2	315217	58.41	0
2	315763	58.51	0
2	316309	58.61	0
2	316855	58.71	0
2	317401	58.81	0
2	317947	58.91	0
2	318501	59.01	0
2	319047	59.11	0
2	319593	59.21	0
2	320139	59.31	0
2	320685	59.41	0
2	321231	59.51	0
2	321777	59.61	0
2	322323	59.71	0
2	322869	59.81	0
2	323415	59.91	0
2	323969	60.01	0
2	324515	60.11	0
2	325061	60.21	0
2	325607	60.31	0
2	326153	60.41	0
2	326699	60.51	0
2	327245	60.61	0
2	327791	60.71	0
2	328337	60.81	0
2	328883	60.91	0
2	329437	61.01	0
2	329983	61.11	0
2	330529	61.21	0
2	331075	61.31	0
2	331621	61.41	0
2	332167	61.51	0
2	332713	61.61	0
2	333259	61.71	0
2	333805	61.81	0
2	334351	61.91	0
2	334905	62.01	0
2	335451	62.11	0
2	335997	62.21	0
2	336543	62.31	0
2	337089	62.41	0
2	337635	62.51	0
2	338181	62.61	0
2	338727	62.71	0
2	339273	62.81	0
2	339819	62.91	0
2	340373	63.01	0
2	340919	63.11	0
2	341465	63.21	0
2	342011	63.31	0
2	342557	63.41	0
2	343103	63.51	0
2	343649	63.61	0
2	344195	63.71	0
2	344741	63.81	0
2	345287	63.91	0
2	345841	64.01	0
2	346387	64.11	0
2	346933	64.21	0
2	347479	64.31	0
2	348025	64.41	0
2	348571	64.51	0
2	349117	64.61	0
2	349663	64.71	0
2	350209	64.81	0
2	350755	64.91	0
2	351309	65.01	0
2	351855	65.11	0
2	352401	65.21	0
2	352947	65.31	0
2	353493	65.41	0
2	354039	65.51	0
2	354585	65.61	0
2	355131	65.71	0
2	355677	65.81	0
2	356223	65.91	0
2	356777	66.01	0
2	357323	66.11	0
2	357869	66.21	0
2	358415	66.31	0
2	358961	66.41	0
2	359507	66.51	0
2	360053	66.61	0
2	360599	66.71	0
2	361145	66.81	0
2	361691	66.91	0
2	362245	67.01	0
2	362791	67.11	0
2	363337	67.21	0
2	363883	67.31	0
2	364429	67.41	0
2	364975	67.51	0
2	365521	67.61	0
2	366067	67.71	0
2	366613	67.81	0
2	367159	67.91	0
2	367713	68.01	0
2	368259	68.11	0
2	368805	68.21	0
2	369351	68.31	0
2	369897	68.41	0
2	370443	68.51	0
2	370989	68.61	0
2	371535	68.71	0
2	372081	68.81	0
2	372627	68.91	0
2	373181	69.01	0
2	373727	69.11	0
2	374273	69.21	0
2	374819	69.31	0
2	375365	69.41	0
2	375911	69.51	0
2	376457	69.61	0
2	377003	69.71	0
2	377549	69.81	0
2	378095	69.91	0
2	378649	70.01	0
2	379195	70.11	0
2	379741	70.21	0
2	380287	70.31	0
2	380833	70.41	0
2	381379	70.51	0
2	381925	70.61	0
2	382471	70.71	0
2	383017	70.81	0
2	383563	70.91	0
2	384117	71.01	0
2	384663	71.11	0
2	385209	71.21	0
2	385755	71.31	0
2	386301	71.41	0
2	386847	71.51	0
2	387393	71.61	0
2	387939	71.71	0
2	388485	71.81	0
2	389031	71.91	0
2	389585	72.01	0
2	390131	72.11	0
2	390677	72.21	0
2	391223	72.31	0
2	391769	72.41	0
2	392315	72.51	0
2	392861	72.61	0
2	393407	72.71	0
2	393953	72.81	0
2	394499	72.91	0
2	395053	73.01	0
2	395599	73.11	0
2	396145	73.21	0
2	396691	73.31	0
2	397237	73.41	0
2	397783	73.51	0
2	398329	73.61	0
2	398875	73.71	0
2	399421	73.81	0
2	399967	73.91	0
2	400521	74.01	0
2	401067	74.11	0
2	401613	74.21	0
2	402159	74.31	0
2	402705	74.41	0
2	403251	74.51	0
2	403797	74.61	0
2	404343	74.71	0
2	404889	74.81	0
2	405435	74.91	0
2	405989	75.01	0
2	406535	75.11	0
2	407081	75.21	0
2	407627	75.31	0
2	408173	75.41	0
2	408719	75.51	0
2	409265	75.61	0
2	409811	75.71	0
2	410357	75.81	0
2	410903	75.91	0
2	411457	76.01	0
2	412003	76.11	0
2	412549	76.21	0
2	413095	76.31	0
2	413641	76.41	0
2	414187	76.51	0
2	414733	76.61	0
2	415279	76.71	0
2	415825	76.81	0
2	416371	76.91	0
2	416925	77.01	0
2	417471	77.11	0
2	418017	77.21	0
2	418563	77.31	0
2	419109	77.41	0
2	419655	77.51	0
2	420201	77.61	0
2	420747	77.71	0
2	421293	77.81	0
2	421839	77.91	0
2	422393	78.01	0
2	422939	78.11	0
2	423485	78.21	0
2	424031	78.31	0
2	424577	78.41	0
2	425123	78.51	0
2	425669	78.61	0
2	426215	78.71	0
2	426761	78.81	0
2	427307	78.91	0
2	427861	79.01	0
2	428407	79.11	0
2	428953	79.21	0
2	429499	79.31	0
2	430045	79.41	0
2	430591	79.51	0
2	431137	79.61	0
2	431683	79.71	0
2	432229	79.81	0
2	432775	79.91	0
2	433329	80.01	0
2	433875	80.11	0
2	434421	80.21	0
2	434967	80.31	0
2	435513	80.41	0
2	436059	80.51	0
2	436605	80.61	0
2	437151	80.71	0
2	437697	80.81	0
2	438243	80.91	0
2	438797	81.01	0
2	439343	81.11	0
2	439889	81.21	0
2	440435	81.31	0
2	440981	81.41	0
2	441527	81.51	0
2	442073	81.61	0
2	442619	81.71	0
2	443165	81.81	0
2	443711	81.91	0
2	444265	82.01	0
2	444811	82.11	0
2	445357	82.21	0
2	445903	82.31	0
2	446449	82.41	0
2	446995	82.51	0
2	447541	82.61	0
2	448087	82.71	0
2	448633	82.81	0
2	449179	82.91	0
2	449733	83.01	0
2	450279	83.11	0
2	450825	83.21	0
2	451371	83.31	0
2	451917	83.41	0
2	452463	83.51	0
2	453009	83.61	0
2	453555	83.71	0
2	454101	83.81	0
2	454647	83.91	0
2	455201	84.01	0
2	455747	84.11	0
2	456293	84.21	0
2	456839	84.31	0
2	457385	84.41	0
2	457931	84.51	0
2	458477	84.61	0
2	459023	84.71	0
2	459569	84.81	0
2	460115	84.91	0
2	460669	85.01	0
2	461215	85.11	0
2	461761	85.21	0
2	462307	85.31	0
2	462853	85.41	0
2	463399	85.51	0
2	463945	85.61	0
2	464491	85.71	0
2	465037	85.81	0
2	465583	85.91	0
2	466137	86.01	0
2	466683	86.11	0
2	467229	86.21	0
2	467775	86.31	0
2	468321	86.41	0
2	468867	86.51	0
2	469413	86.61	0
2	469959	86.71	0
2	470505	86.81	0
2	471051	86.91	0
2	471605	87.01	0
2	472151	87.11	0
2	472697	87.21	0
2	473243	87.31	0
2	473789	87.41	0
2	474335	87.51	0
2	474881	87.61	0
2	475427	87.71	0
2	475973	87.81	0
2	476519	87.91	0
2	477073	88.01	0
2	477619	88.11	0
2	478165	88.21	0
2	478711	88.31	0
2	479257	88.41	0
2	479803	88.51	0
2	480349	88.61	0
2	480895	88.71	0
2	481441	88.81	0
2	481987	88.91	0
2	482541	89.01	0
2	483087	89.11	0
2	483633	89.21	0
2	484179	89.31	0
2	484725	89.41	0
2	485271	89.51	0
2	485817	89.61	0
2	486363	89.71	0
2	486909	89.81	0
2	487455	89.91	0
2	488009	90.01	0
2	488555	90.11	0
2	489101	90.21	0
2	489647	90.31	0
2	490193	90.41	0
2	490739	90.51	0
2	491285	90.61	0
2	491831	90.71	0
2	492377	90.81	0
2	492923	90.91	0
2	493477	91.01	0
2	494023	91.11	0
2	494569	91.21	0
2	495115	91.31	0
2	495661	91.41	0
2	496207	91.51	0
2	496753	91.61	0
2	497299	91.71	0
2	497845	91.81	0
2	498391	91.91	0
2	498945	92.01	0
2	499491	92.11	0
2	500037	92.21	0
2	500583	92.31	0
2	501129	92.41	0
2	501675	92.51	0
2	502221	92.61	0
2	502767	92.71	0
2	503313	92.81	0
2	503859	92.91	0
2	504413	93.01	0
2	504959	93.11	0
2	505505	93.21	0
2	506051	93.31	0
2	506597	93.41	0
2	507143	93.51	0
2	507689	93.61	0
2	508235	93.71	0
2	508781	93.81	0
2	509327	93.91	0
2	509881	94.01	0
2	510427	94.11	0
2	510973	94.21	0
2	511519	94.31	0
2	512065	94.41	0
2	512611	94.51	0
2	513157	94.61	0
2	513703	94.71	0
2	514249	94.81	0
2	514795	94.91	0
2	515349	95.01	0
2	515895	95.11	0
2	516441	95.21	0
2	516987	95.31	0
2	517533	95.41	0
2	518079	95.51	0
2	518625	95.61	0
2	519171	95.71	0
2	519717	95.81	0
2	520263	95.91	0
2	520817	96.01	0
2	521363	96.11	0
2	521909	96.21	0
2	522455	96.31	0
2	523001	96.41	0
2	523547	96.51	0
2	524093	96.61	0
2	524639	96.71	0
2	525185	96.81	0
2	525731	96.91	0
2	526285	97.01	0
2	526831	97.11	0
2	527377	97.21	0
2	527923	97.31	0
2	528469	97.41	0
2	529015	97.51	0
2	529561	97.61	0
2	530107	97.71	0
2	530653	97.81	0
2	531199	97.91	0
2	531753	98.01	0
2	532299	98.11	0
2	532845	98.21	0
2	533391	98.31	0
2	533937	98.41	0
2	534483	98.51	0
2	535029	98.61	0
2	535575	98.71	0
2	536121	98.81	0
2	536667	98.91	0
2	537221	99.01	0
2	537767	99.11	0
2	538313	99.21	0
2	538859	99.31	0
2	539405	99.41	0
2	539951	99.51	0
2	540497	99.61	0
2	541043	99.71	0
2	541589	99.81	0
2	542135	99.91	0
3	113	1.11	0.000179096
3	659	1.21	0.000340852
3	1205	1.31	0.000467435
3	1751	1.41	0.000562893
3	2297	1.51	0.000631106
3	2843	1.61	0.000675745
3	3389	1.71	0.000700245
3	3935	1.81	0.000707784
3	4481	1.91	0.000701273
3	5035	2.01	0.000683354
3	5581	2.11	0.000656398
3	6127	2.21	0.000622512
3	6673	2.31	0.000583548
3	7219	2.41	0.000541117
3	7765	2.51	0.000496604
3	8311	2.61	0.000451181
3	8857	2.71	0.000405825
3	9403	2.81	0.00036134
3	9949	2.91	0.000318365
3	10503	3.01	0.0002774
3	11049	3.11	0.00023882
3	11595	3.21	0.000202887
3	12141	3.31	0.00016977
3	12687	3.41	0.000139558
3	13233	3.51	0.000112271
3	13779	3.61	8.78717e-05
3	14325	3.71	6.628e-05
3	14871	3.81	4.73785e-05
3	15417	3.91	3.1023e-05
3	15971	4.01	1.70493e-05
3	16517	4.11	5.28023e-06
3	17063	4.21	-4.46922e-06
3	17609	4.31	-1.2387e-05
3	18155	4.41	-1.86602e-05
3	18701	4.51	-2.34717e-05
3	19247	4.61	-2.69978e-05
3	19793	4.71	-2.94062e-05
3	20339	4.81	-3.08545e-05
3	20885	4.91	-3.14892e-05
3	21439	5.01	-3.14451e-05
3	21985	5.11	-3.0845e-05
3	22531	5.21	-2.97994e-05
3	23077	5.31	-2.84072e-05
3	23623	5.41	-2.67556e-05
3	24169	5.51	-2.49208e-05
3	24715	5.61	-2.29687e-05
3	25261	5.71	-2.09553e-05
3	25807	5.81	-1.89277e-05
3	26353	5.91	-1.6925e-05
3	26907	6.01	-1.49784e-05
3	27453	6.11	-1.31129e-05
3	27999	6.21	-1.13474e-05
3	28545	6.31	-9.69553e-06
3	29091	6.41	-8.16651e-06
3	29637	6.51	-6.76571e-06
3	30183	6.61	-5.49522e-06
3	30729	6.71	-4.35441e-06
3	31275	6.81	-3.34045e-06
3	31821	6.91	-2.44874e-06
3	32375	7.01	-1.6733e-06
3	32921	7.11	-1.00716e-06
3	33467	7.21	-4.42628e-07
3	34013	7.31	2.84224e-08
3	34559	7.41	4.14339e-07
3	35105	7.51	7.23492e-07
3	35651	7.61	9.6413e-07
3	36197	7.71	1.14424e-06
3	36743	7.81	1.27148e-06
3	37289	7.91	1.35305e-06
3	37843	8.01	1.3957e-06
3	38389	8.11	1.40565e-06
3	38935	8.21	1.3886e-06
3	39481	8.31	1.34971e-06
3	40027	8.41	1.2936e-06
3	40573	8.51	1.22437e-06
3	41119	8.61	1.14561e-06
3	41665	8.71	1.06046e-06
3	42211	8.81	9.71582e-07
3	42757	8.91	8.81246e-07
3	43311	9.01	7.91334e-07
3	43857	9.11	7.03381e-07
3	44403	9.21	6.18613e-07
3	44949	9.31	5.37979e-07
3	45495	9.41	4.62183e-07
3	46041	9.51	3.91714e-07
3	46587	9.61	3.26878e-07
3	47133	9.71	2.67827e-07
3	47679	9.81	2.14581e-07
3	48225	9.91	1.67052e-07
3	50569	10.01	1.25066e-07
3	51115	10.11	8.83794e-08
3	51661	10.21	5.66978e-08
3	52207	10.31	2.96922e-08
3	52753	10.41	7.00453e-09
3	53299	10.51	-1.17325e-08
3	53845	10.61	-2.68933e-08
3	54391	10.71	-3.88482e-08
3	54937	10.81	-4.79581e-08
3	55483	10.91	-5.45704e-08
3	56037	11.01	-5.90177e-08
3	56583	11.11	-6.16069e-08
3	57129	11.21	-6.26265e-08
3	57675	11.31	-6.23395e-08
3	58221	11.41	-6.09859e-08
3	58767	11.51	-5.87811e-08
3	59313	11.61	-5.59183e-08
3	59859	11.71	-5.25674e-08
3	60405	11.81	-4.88761e-08
3	60951	11.91	-4.4971e-08
3	61505	12.01	-4.09599e-08
3	62051	12.11	-3.69354e-08
3	62597	12.21	-3.29713e-08
3	63143	12.31	-2.9128e-08
3	63689	12.41	-2.54531e-08
3	64235	12.51	-2.19821e-08
3	64781	12.61	-1.87399e-08
3	65327	12.71	-1.57428e-08
3	65873	12.81	-1.30029e-08
3	66419	12.91	-1.05217e-08
3	66973	13.01	-8.29772e-09
3	67519	13.11	-6.32454e-09
3	68065	13.21	-4.59224e-09
3	68611	13.31	-3.08802e-09
3	69157	13.41	-1.79838e-09
3	69703	13.51	-7.08411e-10
3	70249	13.61	1.98241e-10
3	70795	13.71	9.37916e-10
3	71341	13.81	1.52767e-09
3	71887	13.91	1.98384e-09
3	72441	14.01	2.32276e-09
3	72987	14.11	2.55937e-09
3	73533	14.21	2.70788e-09
3	74079	14.31	2.78249e-09
3	74625	14.41	2.79243e-09
3	75171	14.51	2.7498e-09
3	75717	14.61	2.66525e-09
3	76263	14.71	2.54872e-09
3	76809	14.81	2.40803e-09
3	77355	14.91	2.24887e-09
3	77909	15.01	2.07763e-09
3	78455	15.11	1.89999e-09
3	79001	15.21	1.72236e-09
3	79547	15.31	1.54472e-09
3	80093	15.41	1.37064e-09
3	80639	15.51	1.20295e-09
3	81185	15.61	1.04379e-09
3	81731	15.71	8.94573e-10
3	82277	15.81	7.56017e-10
3	82823	15.91	6.29541e-10
3	83377	16.01	5.13012e-10
3	83923	16.11	4.09273e-10
3	84469	16.21	3.16902e-10
3	85015	16.31	2.3519e-10
3	85561	16.41	1.63425e-10
3	86107	16.51	1.02318e-10
3	86653	16.61	4.9738e-11
3	87199	16.71	5.68434e-12
3	87745	16.81	-3.05533e-11
3	88291	16.91	-5.8975e-11
3	88845	17.01	-8.10019e-11
3	89391	17.11	-9.80549e-11
3	89937	17.21	-1.11555e-10
3	90483	17.31	-1.18661e-10
3	91029	17.41	-1.23634e-10
3	91575	17.51	-1.23634e-10
3	92121	17.61	-1.23634e-10
3	92667	17.71	-1.21503e-10
3	93213	17.81	-1.14397e-10
3	93759	17.91	-1.07292e-10
3	94313	18.01	-1.00187e-10
3	94859	18.11	-9.30811e-11
3	95405	18.21	-8.59757e-11
3	95951	18.31	-7.88702e-11
3	96497	18.41	-7.17648e-11
3	97043	18.51	-6.46594e-11
3	97589	18.61	-5.7554e-11
3	98135	18.71	-5.04485e-11
3	98681	18.81	-4.33431e-11
3	99227	18.91	-3.62377e-11
3	99781	19.01	-2.91323e-11
3	100327	19.11	-2.20268e-11
3	100873	19.21	-1.7053e-11
3	101419	19.31	-1.49214e-11
3	101965	19.41	-1.35003e-11
3	102511	19.51	-1.27898e-11
3	103057	19.61	-1.13687e-11
3	103603	19.71	-9.9476e-12
3	104149	19.81	-9.23706e-12
3	104695	19.91	-8.52651e-12
3	105249	20.01	-7.81597e-12
3	105795	20.11	-7.10543e-12
3	106341	20.21	-6.39488e-12
3	106887	20.31	-5.68434e-12
3	107433	20.41	-4.9738e-12
3	107979	20.51	-4.26326e-12
3	108525	20.61	-4.26326e-12
3	109071	20.71	-3.55271e-12
3	109617	20.81	-3.55271e-12
3	110163	20.91	-2.84217e-12
3	110717	21.01	-2.84217e-12
3	111263	21.11	-2.84217e-12
3	111809	21.21	-2.13163e-12
3	112355	21.31	-2.13163e-12
3	112901	21.41	-2.13163e-12
3	113447	21.51	-1.42109e-12
3	113993	21.61	-1.42109e-12
3	114539	21.71	-1.42109e-12
3	115085	21.81	-1.42109e-12
3	115631	21.91	-1.42109e-12
3	116185	22.01	-7.10543e-13
3	116731	22.11	-7.10543e-13
3	117277	22.21	-7.10543e-13
3	117823	22.31	-7.10543e-13
3	118369	22.41	-7.10543e-13
3	118915	22.51	-7.10543e-13
3	119461	22.61	-7.10543e-13
3	120007	22.71	-7.10543e-13
3	120553	22.81	-7.10543e-13
3	121099	22.91	-7.10543e-13
3	121653	23.01	0
3	122199	23.11	0
3	122745	23.21	0
3	123291	23.31	0
3	123837	23.41	0
3	124383	23.51	0
3	124929	23.61	0
3	125475	23.71	0
3	126021	23.81	0
3	126567	23.91	0
3	127121	24.01	0
3	127667	24.11	0
3	128213	24.21	0
3	128759	24.31	0
3	129305	24.41	0
3	129851	24.51	0
3	130397	24.61	0
3	130943	24.71	0
3	131489	24.81	0
3	132035	24.91	0
3	132589	25.01	0
3	133135	25.11	0
3	133681	25.21	0
3	134227	25.31	0
3	134773	25.41	0
3	135319	25.51	0
3	135865	25.61	0
3	136411	25.71	0
3	136957	25.81	0
3	137503	25.91	0
3	138057	26.01	0
3	138603	26.11	0
3	139149	26.21	0
3	139695	26.31	0
3	140241	26.41	0
3	140787	26.51	0
3	141333	26.61	0
3	141879	26.71	0
3	142425	26.81	0
3	142971	26.91	0
3	143525	27.01	0
3	144071	27.11	0
3	144617	27.21	0
3	145163	27.31	0
3	145709	27.41	0
3	146255	27.51	0
3	146801	27.61	0
3	147347	27.71	0
3	147893	27.81	0
3	148439	27.91	0
3	148993	28.01	0
3	149539	28.11	0
3	150085	28.21	0
3	150631	28.31	0
3	151177	28.41	0
3	151723	28.51	0
3	152269	28.61	0
3	152815	28.71	0
3	153361	28.81	0
3	153907	28.91	0
3	154461	29.01	0
3	155007	29.11	0
3	155553	29.21	0
3	156099	29.31	0
3	156645	29.41	0
3	157191	29.51	0
3	157737	29.61	0
3	158283	29.71	0
3	158829	29.81	0
3	159375	29.91	0
3	159929	30.01	0
3	160475	30.11	0
3	161021	30.21	0
3	161567	30.31	0
3	162113	30.41	0
3	162659	30.51	0
3	163205	30.61	0
3	163751	30.71	0
3	164297	30.81	0
3	164843	30.91	0
3	165397	31.01	0
3	165943	31.11	0
3	166489	31.21	0
3	167035	31.31	0
3	167581	31.41	0
3	168127	31.51	0
3	168673	31.61	0
3	169219	31.71	0
3	169765	31.81	0
3	170311	31.91	0
3	170865	32.01	0
3	171411	32.11	0
3	171957	32.21	0
3	172503	32.31	0
3	173049	32.41	0
3	173595	32.51	0
3	174141	32.61	0
3	174687	32.71	0
3	175233	32.81	0
3	175779	32.91	0
3	176333	33.01	0
3	176879	33.11	0
3	177425	33.21	0
3	177971	33.31	0
3	178517	33.41	0
3	179063	33.51	0
3	179609	33.61	0
3	180155	33.71	0
3	180701	33.81	0
3	181247	33.91	0
3	181801	34.01	0
3	182347	34.11	0
3	182893	34.21	0
3	183439	34.31	0
3	183985	34.41	0
3	184531	34.51	0
3	185077	34.61	0
3	185623	34.71	0
3	186169	34.81	0
3	186715	34.91	0
3	187269	35.01	0
3	187815	35.11	0
3	188361	35.21	0
3	188907	35.31	0
3	189453	35.41	0
3	189999	35.51	0
3	190545	35.61	0
3	191091	35.71	0
3	191637	35.81	0
3	192183	35.91	0
3	192737	36.01	0
3	193283	36.11	0
3	193829	36.21	0
3	194375	36.31	0
3	194921	36.41	0
3	195467	36.51	0
3	196013	36.61	0
3	196559	36.71	0
3	197105	36.81	0
3	197651	36.91	0
3	198205	37.01	0
3	198751	37.11	0
3	199297	37.21	0
3	199843	37.31	0
3	200389	37.41	0
3	200935	37.51	0
3	201481	37.61	0
3	202027	37.71	0
3	202573	37.81	0
3	203119	37.91	0
3	203673	38.01	0
3	204219	38.11	0
3	204765	38.21	0
3	205311	38.31	0
3	205857	38.41	0
3	206403	38.51	0
3	206949	38.61	0
3	207495	38.71	0
3	208041	38.81	0
3	208587	38.91	0
3	209141	39.01	0
3	209687	39.11	0
3	210233	39.21	0
3	210779	39.31	0
3	211325	39.41	0
3	211871	39.51	0
3	212417	39.61	0
3	212963	39.71	0
3	213509	39.81	0
3	214055	39.91	0
3	214609	40.01	0
3	215155	40.11	0
3	215701	40.21	0
3	216247	40.31	0
3	216793	40.41	0
3	217339	40.51	0
3	217885	40.61	0
3	218431	40.71	0
3	218977	40.81	0
3	219523	40.91	0
3	220077	41.01	0
3	220623	41.11	0
3	221169	41.21	0
3	221715	41.31	0
3	222261	41.41	0
3	222807	41.51	0
3	223353	41.61	0
3	223899	41.71	0
3	224445	41.81	0
3	224991	41.91	0
3	225545	42.01	0
3	226091	42.11	0
3	226637	42.21	0
3	227183	42.31	0
3	227729	42.41	0
3	228275	42.51	0
3	228821	42.61	0
3	229367	42.71	0
3	229913	42.81	0
3	230459	42.91	0
3	231013	43.01	0
3	231559	43.11	0
3	232105	43.21	0
3	232651	43.31	0
3	233197	43.41	0
3	233743	43.51	0
3	234289	43.61	0
3	234835	43.71	0
3	235381	43.81	0
3	235927	43.91	0
3	236481	44.01	0
3	237027	44.11	0
3	237573	44.21	0
3	238119	44.31	0
3	238665	44.41	0
3	239211	44.51	0
3	239757	44.61	0
3	240303	44.71	0
3	240849	44.81	0
3	241395	44.91	0
3	241949	45.01	0
3	242495	45.11	0
3	243041	45.21	0
3	243587	45.31	0
3	244133	45.41	0
3	244679	45.51	0
3	245225	45.61	0
3	245771	45.71	0
3	246317	45.81	0
3	246863	45.91	0
3	247417	46.01	0
3	247963	46.11	0
3	248509	46.21	0
3	249055	46.31	0
3	249601	46.41	0
3	250147	46.51	0
3	250693	46.61	0
3	251239	46.71	0
3	251785	46.81	0
3	252331	46.91	0
3	252885	47.01	0
3	253431	47.11	0
3	253977	47.21	0
3	254523	47.31	0
3	255069	47.41	0
3	255615	47.51	0
3	256161	47.61	0
3	256707	47.71	0
3	257253	47.81	0
3	257799	47.91	0
3	258353	48.01	0
3	258899	48.11	0
3	259445	48.21	0
3	259991	48.31	0
3	260537	48.41	0
3	261083	48.51	0
3	261629	48.61	0
3	262175	48.71	0
3	262721	48.81	0
3	263267	48.91	0
3	263821	49.01	0
3	264367	49.11	0
3	264913	49.21	0
3	265459	49.31	0
3	266005	49.41	0
3	266551	49.51	0
3	267097	49.61	0
3	267643	49.71	0
3	268189	49.81	0
3	268735	49.91	0
3	269289	50.01	0
3	269835	50.11	0
3	270381	50.21	0
3	270927	50.31	0
3	271473	50.41	0
3	272019	50.51	0
3	272565	50.61	0
3	273111	50.71	0
3	273657	50.81	0
3	274203	50.91	0
3	274757	51.01	0
3	275303	51.11	0
3	275849	51.21	0
3	276395	51.31	0
3	276941	51.41	0
3	277487	51.51	0
3	278033	51.61	0
3	278579	51.71	0
3	279125	51.81	0
3	279671	51.91	0
3	280225	52.01	0
3	280771	52.11	0
3	281317	52.21	0
3	281863	52.31	0
3	282409	52.41	0
3	282955	52.51	0
3	283501	52.61	0
3	284047	52.71	0
3	284593	52.81	0
3	285139	52.91	0
3	285693	53.01	0
3	286239	53.11	0
3	286785	53.21	0
3	287331	53.31	0
3	287877	53.41	0
3	288423	53.51	0
3	288969	53.61	0
3	289515	53.71	0
3	290061	53.81	0
3	290607	53.91	0
3	291161	54.01	0
3	291707	54.11	0
3	292253	54.21	0
3	292799	54.31	0
3	293345	54.41	0
3	293891	54.51	0
3	294437	54.61	0
3	294983	54.71	0
3	295529	54.81	0
3	296075	54.91	0
3	296629	55.01	0
3	297175	55.11	0
3	297721	55.21	0
3	298267	55.31	0
3	298813	55.41	0
3	299359	55.51	0
3	299905	55.61	0
3	300451	55.71	0
3	300997	55.81	0
3	301543	55.91	0
3	302097	56.01	0
3	302643	56.11	0
3	303189	56.21	0
3	303735	56.31	0
3	304281	56.41	0
3	304827	56.51	0
3	305373	56.61	0
3	305919	56.71	0
3	306465	56.81	0
3	307011	56.91	0
3	307565	57.01	0
3	308111	57.11	0
3	308657	57.21	0
3	309203	57.31	0
3	309749	57.41	0
3	310295	57.51	0
3	310841	57.61	0
3	311387	57.71	0
3	311933	57.81	0
3	312479	57.91	0
3	313033	58.01	0
3	313579	58.11	0
3	314125	58.21	0
3	314671	58.31	0
3	315217	58.41	0
3	315763	58.51	0
3	316309	58.61	0
3	316855	58.71	0
3	317401	58.81	0
3	317947	58.91	-0.0249215
3	318501	59.01	-0.0778472
3	319047	59.11	-0.118623
3	319593	59.21	-0.148735
3	320139	59.31	-0.169574
3	320685	59.41	-0.182434
3	321231	59.51	-0.188506
3	321777	59.61	-0.18888
3	322323	59.71	-0.184546
3	322869	59.81	-0.176393
3	323415	59.91	-0.165218
3	323969	60.01	-0.151726
3	324515	60.11	-0.136534
3	325061	60.21	-0.120181
3	325607	60.31	-0.103129
3	326153	60.41	-0.0857746
3	326699	60.51	-0.0684471
3	327245	60.61	-0.0514206
3	327791	60.71	-0.0349172
3	328337	60.81	-0.0191128
3	328883	60.91	-0.0041424
3	329437	61.01	0.00989486
3	329983	61.11	0.0229312
3	330529	61.21	0.0349256
3	331075	61.31	0.0458602
3	331621	61.41	0.0557362
3	332167	61.51	0.0645708
3	332713	61.61	0.0723942
3	333259	61.71	0.0792468
3	333805	61.81	0.085177
3	334351	61.91	0.0902389
3	334905	62.01	0.0944905
3	335451	62.11	0.0979926
3	335997	62.21	0.100807
3	336543	62.31	0.102994
3	337089	62.41	0.104616
3	337635	62.51	0.105731
3	338181	62.61	0.106397
3	338727	62.71	0.106665
3	339273	62.81	0.10576
3	339819	62.91	0.10312
3	340373	63.01	0.0991044
3	340919	63.11	0.094033
3	341465	63.21	0.0881861
3	342011	63.31	0.0818079
3	342557	63.41	0.0751083
3	343103	63.51	0.0682651
3	343649	63.61	0.061427
3	344195	63.71	0.0547156
3	344741	63.81	0.0482285
3	345287	63.91	0.0420418
3	345841	64.01	0.0362125
3	346387	64.11	0.030781
3	346933	64.21	0.0257731
3	347479	64.31	0.0212027
3	348025	64.41	0.017073
3	348571	64.51	0.0133791
3	349117	64.61	0.0101088
3	349663	64.71	0.00724468
3	350209	64.81	0.00476519
3	350755	64.91	0.00264567
3	351309	65.01	0.000859473
3	351855	65.11	-0.000621245
3	352401	65.21	-0.00182481
3	352947	65.31	-0.00277942
3	353493	65.41	-0.00351268
3	354039	65.51	-0.00405121
3	354585	65.61	-0.00442032
3	355131	65.71	-0.00464385
3	355677	65.81	-0.00474392
3	356223	65.91	-0.00474093
3	356777	66.01	-0.00465345
3	357323	66.11	-0.00449822
3	357869	66.21	-0.00429019
[...]
104	394982	73	4
104	400450	74	4
104	405918	75	4
104	411386	76	4
104	416854	77	4
104	422322	78	4
104	427790	79	4
104	433258	80	4
104	438726	81	4
104	444194	82	4
104	449662	83	4
104	455130	84	4
104	460598	85	4
104	466066	86	4
104	471534	87	4
104	477002	88	4
104	482470	89	4
104	487938	90	4
104	493406	91	4
104	498874	92	4
104	504342	93	4
104	509810	94	4
104	515278	95	4
104	520746	96	4
104	526214	97	4
104	531682	98	4
104	537150	99	4
104	542618	100	4
105	4964	2	0.022161
105	10432	3	0.02497
105	15900	4	0.02497
105	21368	5	0.02497
105	26836	6	0.02497
105	32304	7	0.02497
105	37772	8	0.02497
105	43240	9	0.02497
105	48709	10	0.02497
105	55966	11	0.026842280198
105	61434	12	0.02497
105	66902	13	0.02497
105	72370	14	0.02497
105	77838	15	0.02497
105	83306	16	0.02497
105	88774	17	0.02497
105	94242	18	0.02497
105	99710	19	0.02497
105	105178	20	0.02497
105	110646	21	0.02497
105	116114	22	0.02497
105	121582	23	0.02497
105	127050	24	0.02497
105	132518	25	0.02497
105	137986	26	0.02497
105	143454	27	0.02497
105	148922	28	0.02497
105	154390	29	0.02497
105	159858	30	0.02497
105	165326	31	0.02497
105	170794	32	0.02497
105	176262	33	0.02497
105	181730	34	0.02497
105	187198	35	0.02497
105	192666	36	0.02497
105	198134	37	0.02497
105	203602	38	0.02497
105	209070	39	0.02497
105	214538	40	0.02497
105	220006	41	0.02497
105	225474	42	0.02497
105	230942	43	0.02497
105	236410	44	0.02497
105	241878	45	0.02497
105	247346	46	0.02497
105	252814	47	0.02497
105	258282	48	0.02497
105	263750	49	0.02497
105	269218	50	0.02497
105	274686	51	0.02497
105	280154	52	0.02497
105	285622	53	0.02497
105	291090	54	0.02497
105	296558	55	0.02497
105	302026	56	0.02497
105	307494	57	0.02497
105	312962	58	0.02497
105	318430	59	0.02497
105	323898	60	0.02497
105	329366	61	0.02497
105	334834	62	0.02497
105	340302	63	0.02497
105	345770	64	0.02497
105	351238	65	0.02497
105	356706	66	0.02497
105	362174	67	0.02497
105	367642	68	0.02497
105	373110	69	0.02497
105	378578	70	0.02497
105	384046	71	0.02497
105	389514	72	0.02497
105	394982	73	0.02497
105	400450	74	0.02497
105	405918	75	0.02497
105	411386	76	0.02497
105	416854	77	0.02497
105	422322	78	0.02497
105	427790	79	0.02497
105	433258	80	0.02497
105	438726	81	0.02497
105	444194	82	0.02497
105	449662	83	0.02497
105	455130	84	0.02497
105	460598	85	0.02497
105	466066	86	0.02497
105	471534	87	0.02497
105	477002	88	0.02497
105	482470	89	0.02497
105	487938	90	0.02497
105	493406	91	0.02497
105	498874	92	0.02497
105	504342	93	0.02497
105	509810	94	0.02497
105	515278	95	0.02497
105	520746	96	0.02497
105	526214	97	0.02497
105	531682	98	0.02497
105	537150	99	0.02497
105	542618	100	0.02497
106	4964	2	0
106	10432	3	0
106	15900	4	0
106	21368	5	0
106	26836	6	0
106	32304	7	0
106	37772	8	0
106	43240	9	0
106	48709	10	0
106	55966	11	0
106	61434	12	0
106	66902	13	0
106	72370	14	0
106	77838	15	0
106	83306	16	0
106	88774	17	0
106	94242	18	0
106	99710	19	0
106	105178	20	0
106	110646	21	0
106	116114	22	0
106	121582	23	0
106	127050	24	0
106	132518	25	0
106	137986	26	0
106	143454	27	0
106	148922	28	0
106	154390	29	0
106	159858	30	0
106	165326	31	0
106	170794	32	0
106	176262	33	0
106	181730	34	0
106	187198	35	0
106	192666	36	0
106	198134	37	0
106	203602	38	0
106	209070	39	0
106	214538	40	0
106	220006	41	0
106	225474	42	0
106	230942	43	0
106	236410	44	0
106	241878	45	0
106	247346	46	0
106	252814	47	0
106	258282	48	0
106	263750	49	0
106	269218	50	0
106	274686	51	0
106	280154	52	0
106	285622	53	0
106	291090	54	0
106	296558	55	0
106	302026	56	0
106	307494	57	0
106	312962	58	0
106	318430	59	0
106	323898	60	0
106	329366	61	0
106	334834	62	0
106	340302	63	0
106	345770	64	0
106	351238	65	0
106	356706	66	0
106	362174	67	0
106	367642	68	0
106	373110	69	0
106	378578	70	0
106	384046	71	0
106	389514	72	0
106	394982	73	0
106	400450	74	0
106	405918	75	0
106	411386	76	0
106	416854	77	0
106	422322	78	0
106	427790	79	0
106	433258	80	0
106	438726	81	0
106	444194	82	0
106	449662	83	0
106	455130	84	0
106	460598	85	0
106	466066	86	0
106	471534	87	0
106	477002	88	0
106	482470	89	0
106	487938	90	0
106	493406	91	0
106	498874	92	0
106	504342	93	0
106	509810	94	0
106	515278	95	0
106	520746	96	0
106	526214	97	0
106	531682	98	0
106	537150	99	0
106	542618	100	0
107	4965	2	5
107	10433	3	5
107	15901	4	5
107	21369	5	5
107	26837	6	5
107	32305	7	5
107	37773	8	5
107	43241	9	5
107	48710	10	5
107	55967	11	5
107	61435	12	5
107	66903	13	5
107	72371	14	5
107	77839	15	5
107	83307	16	5
107	88775	17	5
107	94243	18	5
107	99711	19	5
107	105179	20	5
107	110647	21	5
107	116115	22	5
107	121583	23	5
107	127051	24	5
107	132519	25	5
107	137987	26	5
107	143455	27	5
107	148923	28	5
107	154391	29	5
107	159859	30	5
107	165327	31	5
107	170795	32	5
107	176263	33	5
107	181731	34	5
107	187199	35	5
107	192667	36	5
107	198135	37	5
107	203603	38	5
107	209071	39	5
107	214539	40	5
107	220007	41	5
107	225475	42	5
107	230943	43	5
107	236411	44	5
107	241879	45	5
107	247347	46	5
107	252815	47	5
107	258283	48	5
107	263751	49	5
107	269219	50	5
107	274687	51	5
107	280155	52	5
107	285623	53	5
107	291091	54	5
107	296559	55	5
107	302027	56	5
107	307495	57	5
107	312963	58	5
107	318431	59	5
107	323899	60	5
107	329367	61	5
107	334835	62	5
107	340303	63	5
107	345771	64	5
107	351239	65	5
107	356707	66	5
107	362175	67	5
107	367643	68	5
107	373111	69	5
107	378579	70	5
107	384047	71	5
107	389515	72	5
107	394983	73	5
107	400451	74	5
107	405919	75	5
107	411387	76	5
107	416855	77	5
107	422323	78	5
107	427791	79	5
107	433259	80	5
107	438727	81	5
107	444195	82	5
107	449663	83	5
107	455131	84	5
107	460599	85	5
107	466067	86	5
107	471535	87	5
107	477003	88	5
107	482471	89	5
107	487939	90	5
107	493407	91	5
107	498875	92	5
107	504343	93	5
107	509811	94	5
107	515279	95	5
107	520747	96	5
107	526215	97	5
107	531683	98	5
107	537151	99	5
107	542619	100	5
108	4965	2	0.022161
108	10433	3	0.02497
108	15901	4	0.02497
108	21369	5	0.02497
108	26837	6	0.02497
108	32305	7	0.02497
108	37773	8	0.02497
108	43241	9	0.02497
108	48710	10	0.02497
108	55967	11	0.026935520368
108	61435	12	0.02497
108	66903	13	0.02497
108	72371	14	0.02497
108	77839	15	0.02497
108	83307	16	0.02497
108	88775	17	0.02497
108	94243	18	0.02497
108	99711	19	0.02497
108	105179	20	0.02497
108	110647	21	0.02497
108	116115	22	0.02497
108	121583	23	0.02497
108	127051	24	0.02497
108	132519	25	0.02497
108	137987	26	0.02497
108	143455	27	0.02497
108	148923	28	0.02497
108	154391	29	0.02497
108	159859	30	0.02497
108	165327	31	0.02497
108	170795	32	0.02497
108	176263	33	0.02497
108	181731	34	0.02497
108	187199	35	0.02497
108	192667	36	0.02497
108	198135	37	0.02497
108	203603	38	0.02497
108	209071	39	0.02497
108	214539	40	0.02497
108	220007	41	0.02497
108	225475	42	0.02497
108	230943	43	0.02497
108	236411	44	0.02497
108	241879	45	0.02497
108	247347	46	0.02497
108	252815	47	0.02497
108	258283	48	0.02497
108	263751	49	0.02497
108	269219	50	0.02497
108	274687	51	0.02497
108	280155	52	0.02497
108	285623	53	0.02497
108	291091	54	0.02497
108	296559	55	0.02497
108	302027	56	0.02497
108	307495	57	0.02497
108	312963	58	0.02497
108	318431	59	0.02497
108	323899	60	0.02497
108	329367	61	0.02497
108	334835	62	0.02497
108	340303	63	0.02497
108	345771	64	0.02497
108	351239	65	0.02497
108	356707	66	0.02497
108	362175	67	0.02497
108	367643	68	0.02497
108	373111	69	0.02497
108	378579	70	0.02497
108	384047	71	0.02497
108	389515	72	0.02497
108	394983	73	0.02497
108	400451	74	0.02497
108	405919	75	0.02497
108	411387	76	0.02497
108	416855	77	0.02497
108	422323	78	0.02497
108	427791	79	0.02497
108	433259	80	0.02497
108	438727	81	0.02497
108	444195	82	0.02497
108	449663	83	0.02497
108	455131	84	0.02497
108	460599	85	0.02497
108	466067	86	0.02497
108	471535	87	0.02497
108	477003	88	0.02497
108	482471	89	0.02497
108	487939	90	0.02497
108	493407	91	0.02497
108	498875	92	0.02497
108	504343	93	0.02497
108	509811	94	0.02497
108	515279	95	0.02497
108	520747	96	0.02497
108	526215	97	0.02497
108	531683	98	0.02497
108	537151	99	0.02497
108	542619	100	0.02497
109	4965	2	0
109	10433	3	0
109	15901	4	0
109	21369	5	0
109	26837	6	0
109	32305	7	0
109	37773	8	0
109	43241	9	0
109	48710	10	0
109	55967	11	0
109	61435	12	0
109	66903	13	0
109	72371	14	0
109	77839	15	0
109	83307	16	0
109	88775	17	0
109	94243	18	0
109	99711	19	0
109	105179	20	0
109	110647	21	0
109	116115	22	0
109	121583	23	0
109	127051	24	0
109	132519	25	0
109	137987	26	0
109	143455	27	0
109	148923	28	0
109	154391	29	0
109	159859	30	0
109	165327	31	0
109	170795	32	0
109	176263	33	0
109	181731	34	0
109	187199	35	0
109	192667	36	0
109	198135	37	0
109	203603	38	0
109	209071	39	0
109	214539	40	0
109	220007	41	0
109	225475	42	0
109	230943	43	0
109	236411	44	0
109	241879	45	0
109	247347	46	0
109	252815	47	0
109	258283	48	0
109	263751	49	0
109	269219	50	0
109	274687	51	0
109	280155	52	0
109	285623	53	0
109	291091	54	0
109	296559	55	0
109	302027	56	0
109	307495	57	0
109	312963	58	0
109	318431	59	0
109	323899	60	0
109	329367	61	0
109	334835	62	0
109	340303	63	0
109	345771	64	0
109	351239	65	0
109	356707	66	0
109	362175	67	0
109	367643	68	0
109	373111	69	0
109	378579	70	0
109	384047	71	0
109	389515	72	0
109	394983	73	0
109	400451	74	0
109	405919	75	0
109	411387	76	0
109	416855	77	0
109	422323	78	0
109	427791	79	0
109	433259	80	0
109	438727	81	0
109	444195	82	0
109	449663	83	0
109	455131	84	0
109	460599	85	0
109	466067	86	0
109	471535	87	0
109	477003	88	0
109	482471	89	0
109	487939	90	0
109	493407	91	0
109	498875	92	0
109	504343	93	0
109	509811	94	0
109	515279	95	0
109	520747	96	0
109	526215	97	0
109	531683	98	0
109	537151	99	0
109	542619	100	0
110	4966	2	6
110	10434	3	6
110	15902	4	6
110	21370	5	6
110	26838	6	6
110	32306	7	6
110	37774	8	6
110	43242	9	6
110	48711	10	6
110	55968	11	6
110	61436	12	6
110	66904	13	6
110	72372	14	6
110	77840	15	6
110	83308	16	6
110	88776	17	6
110	94244	18	6
110	99712	19	6
110	105180	20	6
110	110648	21	6
110	116116	22	6
110	121584	23	6
110	127052	24	6
110	132520	25	6
110	137988	26	6
110	143456	27	6
110	148924	28	6
110	154392	29	6
110	159860	30	6
110	165328	31	6
110	170796	32	6
110	176264	33	6
110	181732	34	6
110	187200	35	6
110	192668	36	6
110	198136	37	6
110	203604	38	6
110	209072	39	6
110	214540	40	6
110	220008	41	6
110	225476	42	6
110	230944	43	6
110	236412	44	6
110	241880	45	6
110	247348	46	6
110	252816	47	6
110	258284	48	6
110	263752	49	6
110	269220	50	6
110	274688	51	6
110	280156	52	6
110	285624	53	6
110	291092	54	6
110	296560	55	6
110	302028	56	6
110	307496	57	6
110	312964	58	6
110	318432	59	6
110	323900	60	6
110	329368	61	6
110	334836	62	6
110	340304	63	6
110	345772	64	6
110	351240	65	6
110	356708	66	6
110	362176	67	6
110	367644	68	6
110	373112	69	6
110	378580	70	6
110	384048	71	6
110	389516	72	6
110	394984	73	6
110	400452	74	6
110	405920	75	6
110	411388	76	6
110	416856	77	6
110	422324	78	6
110	427792	79	6
110	433260	80	6
110	438728	81	6
110	444196	82	6
110	449664	83	6
110	455132	84	6
110	460600	85	6
110	466068	86	6
110	471536	87	6
110	477004	88	6
110	482472	89	6
110	487940	90	6
110	493408	91	6
110	498876	92	6
110	504344	93	6
110	509812	94	6
110	515280	95	6
110	520748	96	6
110	526216	97	6
110	531684	98	6
110	537152	99	6
110	542620	100	6
111	4966	2	0.022161
111	10434	3	0.02497
111	15902	4	0.02497
111	21370	5	0.02497
111	26838	6	0.02497
111	32306	7	0.02497
111	37774	8	0.02497
111	43242	9	0.02497
111	48711	10	0.02497
111	55968	11	0.026842320226
111	61436	12	0.02497
111	66904	13	0.02497
111	72372	14	0.02497
111	77840	15	0.02497
111	83308	16	0.02497
111	88776	17	0.02497
111	94244	18	0.02497
111	99712	19	0.02497
111	105180	20	0.02497
111	110648	21	0.02497
111	116116	22	0.02497
111	121584	23	0.02497
111	127052	24	0.02497
111	132520	25	0.02497
111	137988	26	0.02497
111	143456	27	0.02497
111	148924	28	0.02497
111	154392	29	0.02497
111	159860	30	0.02497
111	165328	31	0.02497
111	170796	32	0.02497
111	176264	33	0.02497
111	181732	34	0.02497
111	187200	35	0.02497
111	192668	36	0.02497
111	198136	37	0.02497
111	203604	38	0.02497
111	209072	39	0.02497
111	214540	40	0.02497
111	220008	41	0.02497
111	225476	42	0.02497
111	230944	43	0.02497
111	236412	44	0.02497
111	241880	45	0.02497
111	247348	46	0.02497
111	252816	47	0.02497
111	258284	48	0.02497
111	263752	49	0.02497
111	269220	50	0.02497
111	274688	51	0.02497
111	280156	52	0.02497
111	285624	53	0.02497
111	291092	54	0.02497
111	296560	55	0.02497
111	302028	56	0.02497
111	307496	57	0.02497
111	312964	58	0.02497
111	318432	59	0.02497
111	323900	60	0.02497
111	329368	61	0.02497
111	334836	62	0.02497
111	340304	63	0.02497
111	345772	64	0.02497
111	351240	65	0.02497
111	356708	66	0.02497
111	362176	67	0.02497
111	367644	68	0.02497
111	373112	69	0.02497
111	378580	70	0.02497
111	384048	71	0.02497
111	389516	72	0.02497
111	394984	73	0.02497
111	400452	74	0.02497
111	405920	75	0.02497
111	411388	76	0.02497
111	416856	77	0.02497
111	422324	78	0.02497
111	427792	79	0.02497
111	433260	80	0.02497
111	438728	81	0.02497
111	444196	82	0.02497
111	449664	83	0.02497
111	455132	84	0.02497
111	460600	85	0.02497
111	466068	86	0.02497
111	471536	87	0.02497
111	477004	88	0.02497
111	482472	89	0.02497
111	487940	90	0.02497
111	493408	91	0.02497
111	498876	92	0.02497
111	504344	93	0.02497
111	509812	94	0.02497
111	515280	95	0.02497
111	520748	96	0.02497
111	526216	97	0.02497
111	531684	98	0.02497
111	537152	99	0.02497
111	542620	100	0.02497
112	4966	2	0
112	10434	3	0
112	15902	4	0
112	21370	5	0
112	26838	6	0
112	32306	7	0
112	37774	8	0
112	43242	9	0
112	48711	10	0
112	55968	11	0
112	61436	12	0
112	66904	13	0
112	72372	14	0
112	77840	15	0
112	83308	16	0
112	88776	17	0
112	94244	18	0
112	99712	19	0
112	105180	20	0
112	110648	21	0
112	116116	22	0
112	121584	23	0
112	127052	24	0
112	132520	25	0
112	137988	26	0
112	143456	27	0
112	148924	28	0
112	154392	29	0
112	159860	30	0
112	165328	31	0
112	170796	32	0
112	176264	33	0
112	181732	34	0
112	187200	35	0
112	192668	36	0
112	198136	37	0
112	203604	38	0
112	209072	39	0
112	214540	40	0
112	220008	41	0
112	225476	42	0
112	230944	43	0
112	236412	44	0
112	241880	45	0
112	247348	46	0
112	252816	47	0
112	258284	48	0
112	263752	49	0
112	269220	50	0
112	274688	51	0
112	280156	52	0
112	285624	53	0
112	291092	54	0
112	296560	55	0
112	302028	56	0
112	307496	57	0
112	312964	58	0
112	318432	59	0
112	323900	60	0
112	329368	61	0
112	334836	62	0
112	340304	63	0
112	345772	64	0
112	351240	65	0
112	356708	66	0
112	362176	67	0
112	367644	68	0
112	373112	69	0
112	378580	70	0
112	384048	71	0
112	389516	72	0
112	394984	73	0
112	400452	74	0
112	405920	75	0
112	411388	76	0
112	416856	77	0
112	422324	78	0
112	427792	79	0
112	433260	80	0
112	438728	81	0
112	444196	82	0
112	449664	83	0
112	455132	84	0
112	460600	85	0
112	466068	86	0
112	471536	87	0
112	477004	88	0
112	482472	89	0
112	487940	90	0
112	493408	91	0
112	498876	92	0
112	504344	93	0
112	509812	94	0
112	515280	95	0
112	520748	96	0
112	526216	97	0
112	531684	98	0
112	537152	99	0
112	542620	100	0
113	4967	2	7
113	10435	3	7
113	15903	4	7
113	21371	5	7
113	26839	6	7
113	32307	7	7
113	37775	8	7
113	43243	9	7
113	48712	10	7
113	55969	11	7
113	61437	12	7
113	66905	13	7
113	72373	14	7
113	77841	15	7
113	83309	16	7
113	88777	17	7
113	94245	18	7
113	99713	19	7
113	105181	20	7
113	110649	21	7
113	116117	22	7
113	121585	23	7
113	127053	24	7
113	132521	25	7
113	137989	26	7
113	143457	27	7
113	148925	28	7
113	154393	29	7
113	159861	30	7
113	165329	31	7
113	170797	32	7
113	176265	33	7
113	181733	34	7
113	187201	35	7
113	192669	36	7
113	198137	37	7
113	203605	38	7
113	209073	39	7
113	214541	40	7
113	220009	41	7
113	225477	42	7
113	230945	43	7
113	236413	44	7
113	241881	45	7
113	247349	46	7
113	252817	47	7
113	258285	48	7
113	263753	49	7
113	269221	50	7
113	274689	51	7
113	280157	52	7
113	285625	53	7
113	291093	54	7
113	296561	55	7
113	302029	56	7
113	307497	57	7
113	312965	58	7
113	318433	59	7
113	323901	60	7
113	329369	61	7
113	334837	62	7
113	340305	63	7
113	345773	64	7
113	351241	65	7
113	356709	66	7
113	362177	67	7
113	367645	68	7
113	373113	69	7
113	378581	70	7
113	384049	71	7
113	389517	72	7
113	394985	73	7
113	400453	74	7
113	405921	75	7
113	411389	76	7
113	416857	77	7
113	422325	78	7
113	427793	79	7
113	433261	80	7
113	438729	81	7
113	444197	82	7
113	449665	83	7
113	455133	84	7
113	460601	85	7
113	466069	86	7
113	471537	87	7
113	477005	88	7
113	482473	89	7
113	487941	90	7
113	493409	91	7
113	498877	92	7
113	504345	93	7
113	509813	94	7
113	515281	95	7
113	520749	96	7
113	526217	97	7
113	531685	98	7
113	537153	99	7
113	542621	100	7
114	4967	2	0.022161
114	10435	3	0.02497
114	15903	4	0.02497
114	21371	5	0.02497
114	26839	6	0.02497
114	32307	7	0.02497
114	37775	8	0.02497
114	43243	9	0.02497
114	48712	10	0.02497
114	55969	11	0.026935600424
114	61437	12	0.02497
114	66905	13	0.02497
114	72373	14	0.02497
114	77841	15	0.02497
114	83309	16	0.02497
114	88777	17	0.02497
114	94245	18	0.02497
114	99713	19	0.02497
114	105181	20	0.02497
114	110649	21	0.02497
114	116117	22	0.02497
114	121585	23	0.02497
114	127053	24	0.02497
114	132521	25	0.02497
114	137989	26	0.02497
114	143457	27	0.02497
114	148925	28	0.02497
114	154393	29	0.02497
114	159861	30	0.02497
114	165329	31	0.02497
114	170797	32	0.02497
114	176265	33	0.02497
114	181733	34	0.02497
114	187201	35	0.02497
114	192669	36	0.02497
114	198137	37	0.02497
114	203605	38	0.02497
114	209073	39	0.02497
114	214541	40	0.02497
114	220009	41	0.02497
114	225477	42	0.02497
114	230945	43	0.02497
114	236413	44	0.02497
114	241881	45	0.02497
114	247349	46	0.02497
114	252817	47	0.02497
114	258285	48	0.02497
114	263753	49	0.02497
114	269221	50	0.02497
114	274689	51	0.02497
114	280157	52	0.02497
114	285625	53	0.02497
114	291093	54	0.02497
114	296561	55	0.02497
114	302029	56	0.02497
114	307497	57	0.02497
114	312965	58	0.02497
114	318433	59	0.02497
114	323901	60	0.02497
114	329369	61	0.02497
114	334837	62	0.02497
114	340305	63	0.02497
114	345773	64	0.02497
114	351241	65	0.02497
114	356709	66	0.02497
114	362177	67	0.02497
114	367645	68	0.02497
114	373113	69	0.02497
114	378581	70	0.02497
114	384049	71	0.02497
114	389517	72	0.02497
114	394985	73	0.02497
114	400453	74	0.02497
114	405921	75	0.02497
114	411389	76	0.02497
114	416857	77	0.02497
114	422325	78	0.02497
114	427793	79	0.02497
114	433261	80	0.02497
114	438729	81	0.02497
114	444197	82	0.02497
114	449665	83	0.02497
114	455133	84	0.02497
114	460601	85	0.02497
114	466069	86	0.02497
114	471537	87	0.02497
114	477005	88	0.02497
114	482473	89	0.02497
114	487941	90	0.02497
114	493409	91	0.02497
114	498877	92	0.02497
114	504345	93	0.02497
114	509813	94	0.02497
114	515281	95	0.02497
114	520749	96	0.02497
114	526217	97	0.02497
114	531685	98	0.02497
114	537153	99	0.02497
114	542621	100	0.02497
115	4967	2	0
115	10435	3	0
115	15903	4	0
115	21371	5	0
115	26839	6	0
115	32307	7	0
115	37775	8	0
115	43243	9	0
115	48712	10	0
115	55969	11	0
115	61437	12	0
115	66905	13	0
115	72373	14	0
115	77841	15	0
115	83309	16	0
115	88777	17	0
115	94245	18	0
115	99713	19	0
115	105181	20	0
115	110649	21	0
115	116117	22	0
115	121585	23	0
115	127053	24	0
115	132521	25	0
115	137989	26	0
115	143457	27	0
115	148925	28	0
115	154393	29	0
115	159861	30	0
115	165329	31	0
115	170797	32	0
115	176265	33	0
115	181733	34	0
115	187201	35	0
115	192669	36	0
115	198137	37	0
115	203605	38	0
115	209073	39	0
115	214541	40	0
115	220009	41	0
115	225477	42	0
115	230945	43	0
115	236413	44	0
115	241881	45	0
115	247349	46	0
115	252817	47	0
115	258285	48	0
115	263753	49	0
115	269221	50	0
115	274689	51	0
115	280157	52	0
115	285625	53	0
115	291093	54	0
115	296561	55	0
115	302029	56	0
115	307497	57	0
115	312965	58	0
115	318433	59	0
115	323901	60	0
115	329369	61	0
115	334837	62	0
115	340305	63	0
115	345773	64	0
115	351241	65	0
115	356709	66	0
115	362177	67	0
115	367645	68	0
115	373113	69	0
115	378581	70	0
115	384049	71	0
115	389517	72	0
115	394985	73	0
115	400453	74	0
115	405921	75	0
115	411389	76	0
115	416857	77	0
115	422325	78	0
115	427793	79	0
115	433261	80	0
115	438729	81	0
115	444197	82	0
115	449665	83	0
115	455133	84	0
115	460601	85	0
115	466069	86	0
115	471537	87	0
115	477005	88	0
115	482473	89	0
115	487941	90	0
115	493409	91	0
115	498877	92	0
115	504345	93	0
115	509813	94	0
115	515281	95	0
115	520749	96	0
115	526217	97	0
115	531685	98	0
115	537153	99	0
115	542621	100	0

