file 2401020 1720583531                                         
version 3
run BreakRanksNoGui-28-20240710-05:52:02-234371
attr configname BreakRanksNoGui
attr datetime 20240710-05:52:02
attr datetimef 20240710-055202
attr experiment BreakRanksNoGui
attr inifile omnetpp.ini
attr iterationvars "$nCars=8, $platoonSize=8, $nLanes=1, $ploegH=0.5, $controller=1, $headway=0.1, $leaderHeadway=1.2, $leaderSpeed=130, $breakRanksSafetyDistance=2, $minSpeed=120, $maxSpeed=140, $beaconInterval=0.1, $priority=4, $packetSize=200, $sController=\"CACC\", $0=2, $1=0"
attr iterationvarsd nCars=8/platoonSize=8/nLanes=1/ploegH=0.5/controller=1/headway=0.1/leaderHeadway=1.2/leaderSpeed=130/breakRanksSafetyDistance=2/minSpeed=120/maxSpeed=140/beaconInterval=0.1/priority=4/packetSize=200/sController=CACC/2/0
attr iterationvarsf nCars=8,platoonSize=8,nLanes=1,ploegH=0.5,controller=1,headway=0.1,leaderHeadway=1.2,leaderSpeed=130,breakRanksSafetyDistance=2,minSpeed=120,maxSpeed=140,beaconInterval=0.1,priority=4,packetSize=200,sController=CACC,2,0-
attr measurement "$nCars=8, $platoonSize=8, $nLanes=1, $ploegH=0.5, $controller=1, $headway=0.1, $leaderHeadway=1.2, $leaderSpeed=130, $breakRanksSafetyDistance=2, $minSpeed=120, $maxSpeed=140, $beaconInterval=0.1, $priority=4, $packetSize=200, $sController=\"CACC\", $0=2, $1=0"
attr network Highway
attr processid 234371
attr repetition 8
attr replication #8
attr resultdir results
attr runnumber 28
attr seedset 8
itervar beaconInterval 0.1
itervar breakRanksSafetyDistance 2
itervar controller 1
itervar headway 0.1
itervar leaderHeadway 1.2
itervar leaderSpeed 130
itervar maxSpeed 140
itervar minSpeed 120
itervar nCars 8
itervar nLanes 1
itervar packetSize 200
itervar platoonSize 8
itervar ploegH 0.5
itervar priority 4
itervar sController "\"CACC\""
config image-path ../../../veins/images
config repeat 10
config extends BreakRanks
config *.manager.command "\"sumo\""
config *.manager.ignoreGuiCommands true
config output-vector-file results/BreakRanks_1_0.1_130_2/result_8.vec
config output-scalar-file results/BreakRanks_1_0.1_130_2/result_8.sca
config extends Platooning
config *.node[*].scenario_type "\"BreakRanksScenario\""
config *.manager.command "\"sumo-gui\""
config *.node[*].scenario_type "\"SimpleScenario\""
config cmdenv-express-mode true
config cmdenv-autoflush true
config cmdenv-status-frequency 15s
config num-rngs 6
config network Highway
config debug-on-errors true
config print-undisposed true
config *.playgroundSizeX 65000m
config *.playgroundSizeY 25000m
config *.playgroundSizeZ 50m
config sim-time-limit "100 s"
config *.annotations.draw false
config *.obstacles.debug false
config *.world.useTorus false
config *.world.use2D false
config *.manager.updateInterval 0.01s
config *.manager.host "\"localhost\""
config *.manager.moduleType "\"org.car2x.plexe.PlatoonCar\""
config *.manager.moduleName "\"node\""
config *.manager.moduleDisplayString "\"\""
config *.manager.autoShutdown true
config *.manager.margin 25
config *.connectionManager.sendDirect true
config *.connectionManager.maxInterfDist 2600m
config *.connectionManager.drawMaxIntfDist false
config *.**.nic.mac1609_4.useServiceChannel false
config *.**.nic.mac1609_4.txPower 100mW
config *.**.nic.mac1609_4.bitrate 6Mbps
config *.**.nic.mac1609_4.useAcks true
config *.**.nic.mac1609_4.ackErrorRate 0.0
config *.**.nic.mac1609_4.frameErrorRate 0.0
config *.**.nic.phy80211p.minPowerLevel -94dBm
config *.**.nic.phy80211p.maxTXPower 100mW
config *.**.nic.phy80211p.useNoiseFloor true
config *.**.nic.phy80211p.noiseFloor -95dBm
config *.**.nic.phy80211p.decider "xmldoc(\"config.xml\")"
config *.**.nic.phy80211p.analogueModels "xmldoc(\"config.xml\")"
config *.**.nic.phy80211p.usePropagationDelay true
config *.node[*].mobility.x 0
config *.node[*].mobility.y 0
config *.node[*].mobility.z 1.895
config seed-set 8
config **.seed 8
config *.node[*].prot.rng-0 2
config *.node[*].appl.rng-0 3
config *.node[*].scenario.rng-0 4
config **.traffic.rng-0 5
config *.manager.configFile "\"./sumocfg/freeway.sumo.cfg\""
config *.manager.launchConfig "xmldoc(\"./sumocfg/freeway.launchd.xml\")"
config **.numberOfCars 8
config **.numberOfCarsPerPlatoon 8
config **.numberOfLanes 1
config *.node[*].helper_type "\"PositionHelper\""
config *.node[*].scenario.caccC1 0.5
config *.node[*].scenario.caccXi 1
config *.node[*].scenario.caccOmegaN "0.2 Hz"
config *.node[*].scenario.caccSpacing "2 m"
config *.node[*].scenario.engineTau "0.5 s"
config *.node[*].scenario.ploegH 0.5s
config *.node[*].scenario.ploegKp 0.2
config *.node[*].scenario.ploegKd 0.7
config *.node[*].scenario.useRealisticEngine false
config *.node[*].scenario.useControllerAcceleration true
config *.node[*].scenario.nLanes 1
config **.numericController 1
config **.headway 0.1s
config *.node[*].scenario.accHeadway 0.1s
config *.node[*].scenario.leaderHeadway 1.2s
config *.node[*].scenario.leaderSpeed 130kmph
config *.node[*].appl_type "\"SimplePlatooningApp\""
config *.node[*].appl.*.scalar-recording true
config *.node[*].appl.*.vector-recording true
config *.node[0].appl.breakRanksSafetyDistance 2m
config *.node[*].appl.minSpeed 120kmph
config *.node[*].appl.maxSpeed 140kmph
config *.node[*].protocol_type "\"SimplePlatooningBeaconing\""
config *.node[*].prot.*.scalar-recording true
config *.node[*].prot.*.vector-recording true
config *.node[*].prot.beaconingInterval 0.1s
config *.node[*].prot.priority 4
config *.node[*].prot.packetSize 200
config **.traffic_type "\"PlatoonsTrafficManager\""
config **.traffic.platoonInsertTime "1 s"
config **.traffic.platoonInsertSpeed 130kmph
config **.traffic.nCars 8
config **.traffic.platoonSize 8
config **.traffic.nLanes 1
config **.traffic.platooningVType "\"vtypeauto\""
config **.traffic.controller "\"CACC\""
config **.traffic.platoonInsertDistance 2m
config **.traffic.platoonInsertHeadway 0s
config **.traffic.platoonLeaderHeadway 1.2s
config **.scalar-recording false
config **.vector-recording false

vector 0 Highway.node[0].appl distance ETV
vector 1 Highway.node[0].appl relativeSpeed ETV
vector 2 Highway.node[0].appl nodeId ETV
vector 3 Highway.node[0].appl acceleration ETV
vector 4 Highway.node[0].appl controllerAcceleration ETV
vector 5 Highway.node[0].appl speed ETV
vector 6 Highway.node[0].appl posx ETV
vector 7 Highway.node[0].appl posy ETV
vector 8 Highway.node[1].appl distance ETV
vector 9 Highway.node[1].appl relativeSpeed ETV
vector 10 Highway.node[1].appl nodeId ETV
vector 11 Highway.node[1].appl acceleration ETV
vector 12 Highway.node[1].appl controllerAcceleration ETV
vector 13 Highway.node[1].appl speed ETV
vector 14 Highway.node[1].appl posx ETV
vector 15 Highway.node[1].appl posy ETV
vector 16 Highway.node[2].appl distance ETV
vector 17 Highway.node[2].appl relativeSpeed ETV
vector 18 Highway.node[2].appl nodeId ETV
vector 19 Highway.node[2].appl acceleration ETV
vector 20 Highway.node[2].appl controllerAcceleration ETV
vector 21 Highway.node[2].appl speed ETV
vector 22 Highway.node[2].appl posx ETV
vector 23 Highway.node[2].appl posy ETV
vector 24 Highway.node[3].appl distance ETV
vector 25 Highway.node[3].appl relativeSpeed ETV
vector 26 Highway.node[3].appl nodeId ETV
vector 27 Highway.node[3].appl acceleration ETV
vector 28 Highway.node[3].appl controllerAcceleration ETV
vector 29 Highway.node[3].appl speed ETV
vector 30 Highway.node[3].appl posx ETV
vector 31 Highway.node[3].appl posy ETV
vector 32 Highway.node[4].appl distance ETV
vector 33 Highway.node[4].appl relativeSpeed ETV
vector 34 Highway.node[4].appl nodeId ETV
vector 35 Highway.node[4].appl acceleration ETV
vector 36 Highway.node[4].appl controllerAcceleration ETV
vector 37 Highway.node[4].appl speed ETV
vector 38 Highway.node[4].appl posx ETV
vector 39 Highway.node[4].appl posy ETV
vector 40 Highway.node[5].appl distance ETV
vector 41 Highway.node[5].appl relativeSpeed ETV
vector 42 Highway.node[5].appl nodeId ETV
vector 43 Highway.node[5].appl acceleration ETV
vector 44 Highway.node[5].appl controllerAcceleration ETV
vector 45 Highway.node[5].appl speed ETV
vector 46 Highway.node[5].appl posx ETV
vector 47 Highway.node[5].appl posy ETV
vector 48 Highway.node[6].appl distance ETV
vector 49 Highway.node[6].appl relativeSpeed ETV
vector 50 Highway.node[6].appl nodeId ETV
vector 51 Highway.node[6].appl acceleration ETV
vector 52 Highway.node[6].appl controllerAcceleration ETV
vector 53 Highway.node[6].appl speed ETV
vector 54 Highway.node[6].appl posx ETV
vector 55 Highway.node[6].appl posy ETV
vector 56 Highway.node[7].appl distance ETV
vector 57 Highway.node[7].appl relativeSpeed ETV
vector 58 Highway.node[7].appl nodeId ETV
vector 59 Highway.node[7].appl acceleration ETV
vector 60 Highway.node[7].appl controllerAcceleration ETV
vector 61 Highway.node[7].appl speed ETV
vector 62 Highway.node[7].appl posx ETV
vector 63 Highway.node[7].appl posy ETV
vector 64 Highway.node[4].prot frontDelay ETV
vector 65 Highway.node[4].prot frontDelayId ETV
vector 66 Highway.node[2].prot frontDelay ETV
vector 67 Highway.node[2].prot frontDelayId ETV
vector 68 Highway.node[3].prot frontDelay ETV
vector 69 Highway.node[3].prot frontDelayId ETV
vector 70 Highway.node[5].prot frontDelay ETV
vector 71 Highway.node[5].prot frontDelayId ETV
vector 72 Highway.node[7].prot frontDelay ETV
vector 73 Highway.node[7].prot frontDelayId ETV
vector 74 Highway.node[1].prot leaderDelay ETV
vector 75 Highway.node[1].prot leaderDelayId ETV
vector 76 Highway.node[1].prot frontDelay ETV
vector 77 Highway.node[1].prot frontDelayId ETV
vector 78 Highway.node[2].prot leaderDelay ETV
vector 79 Highway.node[2].prot leaderDelayId ETV
vector 80 Highway.node[3].prot leaderDelay ETV
vector 81 Highway.node[3].prot leaderDelayId ETV
vector 82 Highway.node[4].prot leaderDelay ETV
vector 83 Highway.node[4].prot leaderDelayId ETV
vector 84 Highway.node[5].prot leaderDelay ETV
vector 85 Highway.node[5].prot leaderDelayId ETV
vector 86 Highway.node[6].prot leaderDelay ETV
vector 87 Highway.node[6].prot leaderDelayId ETV
vector 88 Highway.node[7].prot leaderDelay ETV
vector 89 Highway.node[7].prot leaderDelayId ETV
vector 90 Highway.node[6].prot frontDelay ETV
vector 91 Highway.node[6].prot frontDelayId ETV
vector 92 Highway.node[0].prot nodeId ETV
vector 93 Highway.node[0].prot busyTime ETV
vector 94 Highway.node[0].prot collisions ETV
vector 95 Highway.node[1].prot nodeId ETV
vector 96 Highway.node[1].prot busyTime ETV
vector 97 Highway.node[1].prot collisions ETV
vector 98 Highway.node[2].prot nodeId ETV
vector 99 Highway.node[2].prot busyTime ETV
vector 100 Highway.node[2].prot collisions ETV
vector 101 Highway.node[3].prot nodeId ETV
vector 102 Highway.node[3].prot busyTime ETV
vector 103 Highway.node[3].prot collisions ETV
vector 104 Highway.node[4].prot nodeId ETV
vector 105 Highway.node[4].prot busyTime ETV
vector 106 Highway.node[4].prot collisions ETV
vector 107 Highway.node[5].prot nodeId ETV
vector 108 Highway.node[5].prot busyTime ETV
vector 109 Highway.node[5].prot collisions ETV
vector 110 Highway.node[6].prot nodeId ETV
vector 111 Highway.node[6].prot busyTime ETV
vector 112 Highway.node[6].prot collisions ETV
vector 113 Highway.node[7].prot nodeId ETV
vector 114 Highway.node[7].prot busyTime ETV
vector 115 Highway.node[7].prot collisions ETV
0	11185 19519 113 542371 1.11 99.91 989 -1 69.1483 20504.1696 1127049.2408772
1	30704 19039 113 542371 1.11 99.91 989 0 1.12868 366.996404 329.72264217211
2	49743 16524 113 542371 1.11 99.91 989 0 0 0 0
3	66267 21872 113 542371 1.11 99.91 989 -0.188876 0.106665 0.0084950570302577 0.55428290078835
4	88139 26421 113 542371 1.11 99.91 989 -0.325946 0.114011 -0.037996779208134 0.87714216726241
5	114560 22436 113 542371 1.11 99.91 989 35.8713 36.1185 35707.1443 1289182.339412
6	136996 22377 113 542371 1.11 99.91 989 66.1799 3633.28 1829455.7567 4434775796.2445
7	159373 21469 113 542371 1.11 99.91 989 242.45 242.45 239783.05 58135400.472499
8	180842 18419 114 542372 1.11 99.91 989 -1 43.4753 3291.70039 151910.60316036
9	199261 18078 114 542372 1.11 99.91 989 -1.58604e-05 1.20092 107.06509689607 112.91338639807
10	217339 17513 114 542372 1.11 99.91 989 1 1 989 989
11	234852 21790 114 542372 1.11 99.91 989 -0.16583 0.572155 8.9220877212896 4.3888790239125
12	256642 27280 114 542372 1.11 99.91 989 -0.294921 0.888774 8.8757918011271 6.6982991120754
13	283922 19927 114 542372 1.11 99.91 989 36.11 37.0397 36499.0732 1347068.257428
14	303849 23417 114 542372 1.11 99.91 989 60.1799 3706.43 1858871.7805 4595783915.9668
15	327266 22458 114 542372 1.11 99.91 989 242.45 245.75 241393.45 58921597.752499
16	349724 23306 115 542373 1.11 99.91 989 2 49.6137 37668.18584 1639167.7716101
17	373030 23947 115 542373 1.11 99.91 989 -0.112001 3.19811 416.1900575617 657.27036590478
18	396977 17513 115 542373 1.11 99.91 989 2 2 1978 3956
19	414490 25888 115 542373 1.11 99.91 989 -2.02229 0.353913 -1.0448763023973 54.339366381512
20	440378 26555 115 542373 1.11 99.91 989 -3.08597 0.399175 0.3502422193345 75.441560085577
21	466933 21331 115 542373 1.11 99.91 989 32.913 36.1111 35290.9536 1259780.8288116
22	488264 23186 115 542373 1.11 99.91 989 54.1799 3579.67 1787291.3797 4258492282.5604
23	511450 22458 115 542373 1.11 99.91 989 242.45 242.45 239783.05 58135400.472499
24	533908 22567 116 542374 1.11 99.91 989 -1 53.5143 37770.82332 1887573.6047641
25	556475 25342 116 542374 1.11 99.91 989 -0.62146 6.6912 232.45318120112 1159.6127311226
26	581817 17513 116 542374 1.11 99.91 989 3 3 2967 8901
27	599330 25165 116 542374 1.11 99.91 989 -2.88428 1.4997 18.953129382793 251.76792497848
28	624495 26625 116 542374 1.11 99.91 989 -3.60524 1.5 20.312951314612 292.3360540714
29	651120 21802 116 542374 1.11 99.91 989 29.6066 38.044 36519.868 1351613.15107
30	672922 23359 116 542374 1.11 99.91 989 48.1799 3696.46 1821302.3802 4463168608.7625
31	696281 22458 116 542374 1.11 99.91 989 242.45 245.75 242578.15 59499968.2925
32	718739 19148 117 542375 1.11 99.91 989 -1 30.3555 296.22334 24954.92746606
33	737887 18774 117 542375 1.11 99.91 989 -1.52029e-06 5.10455 140.95854527283 569.09272425759
34	756661 17513 117 542375 1.11 99.91 989 4 4 3956 15824
35	774174 21838 117 542375 1.11 99.91 989 -3.14922 1.45105 18.905545302882 179.89102881912
36	796012 27565 117 542375 1.11 99.91 989 -3.60808 1.5 22.004017109452 261.60000125638
37	823577 19748 117 542375 1.11 99.91 989 31.8479 38.0966 37154.3265 1397060.0338183
38	843325 23419 117 542375 1.11 99.91 989 42.1799 3753.91 1859921.1461 4649066928.08
39	866744 22458 117 542375 1.11 99.91 989 242.45 249.05 243805.75 60108778.6925
40	889202 22125 118 542376 1.11 99.91 989 -1 106.18 40957.07611 2832480.8958464
41	911327 19062 118 542376 1.11 99.91 989 -8.47338e-07 3.1595 1323.7429305941 2652.3153091949
42	930389 17513 118 542376 1.11 99.91 989 5 5 4945 24725
43	947902 21630 118 542376 1.11 99.91 989 -3.08413 1.44144 -1.0762401320265 116.94274440687
44	969532 27774 118 542376 1.11 99.91 989 -3.60808 1.5 2.2155798171339 193.47972887035
45	997306 19593 118 542376 1.11 99.91 989 32.7834 36.1111 35537.0712 1277112.7397399
46	1016899 23430 118 542376 1.11 99.91 989 36.1799 3586.28 1788800.4876 4277609018.8694
47	1040329 22458 118 542376 1.11 99.91 989 242.45 252.35 244901.35 60652231.9325
48	1062787 23208 119 542377 1.11 99.91 989 2 190.757 92059.70989 11695006.433884
49	1085995 21669 119 542377 1.11 99.91 989 -0.00822999 7.32513 1895.3850926015 4989.7298905439
50	1107664 17513 119 542377 1.11 99.91 989 6 6 5934 35604
51	1125177 21878 119 542377 1.11 99.91 989 -3.12495 1.49803 -21.03901905538 261.96895606347
52	1147055 27518 119 542377 1.11 99.91 989 -3.60808 1.5 -18.435466900714 309.97319997748
53	1174573 19786 119 542377 1.11 99.91 989 28.1417 36.1111 33582.3835 1141797.6168752
54	1194359 23425 119 542377 1.11 99.91 989 30.1799 3384.91 1688854.2409 3809424435.4239
55	1217784 22458 119 542377 1.11 99.91 989 242.45 249.05 240314.35 58396479.972499
56	1240242 23175 120 542378 1.11 99.91 989 -1 200.671 102848.86411 14451151.9107
57	1263417 21407 120 542378 1.11 99.91 989 -7.723e-06 6.5446 2222.7573475931 6200.4052547365
58	1284824 17513 120 542378 1.11 99.91 989 7 7 6923 48461
59	1302337 21830 120 542378 1.11 99.91 989 -3.2011 1.49819 -21.068053855374 296.03233273688
60	1324167 27549 120 542378 1.11 99.91 989 -3.60808 1.5 -20.713257698147 366.78978712827
61	1351716 19757 120 542378 1.11 99.91 989 28.1488 36.1111 33609.3634 1143511.4246158
62	1371473 23406 120 542378 1.11 99.91 989 24.1799 3381.61 1685148.5096 3798016774.4148
63	1394879 22458 120 542378 1.11 99.91 989 242.45 252.35 243330.55 59873867.5325
64	1417337 40036 768 542480 1.218681580402 99.918683538901 988 0.099987480335 0.100004986651 98.800002438832 9.8800005127578
65	1457373 27288 768 542480 1.218681580402 99.918683538901 988 4 4 3952 15808
66	1484661 40030 835 542565 1.22410962043 99.924111804866 988 0.099987480334 0.100004986667 98.800002664769 9.8800005579735
67	1524691 27287 835 542565 1.22410962043 99.924111804866 988 2 2 1976 3952
68	1551978 40031 902 542620 1.233905640444 99.933895194796 988 0.099987480333 0.100005806285 98.799990034685 9.8799980321739
69	1592009 27281 902 542620 1.233905640444 99.933895194796 988 3 3 2964 8892
70	1619290 40008 968 542692 1.236616680472 99.936606945706 988 0.099987480333 0.100005806285 98.799990745567 9.8799981743465
71	1659298 27264 968 542692 1.236616680472 99.936606945706 988 5 5 4940 24700
72	1686562 40027 1036 542742 1.2505597205 99.950550633064 988 0.099987480333 0.100004983908 98.799991392897 9.879998303663
73	1726589 27289 1036 542742 1.2505597205 99.950550633064 988 7 7 6916 48412
74	1753878 40043 1097 542827 1.260290840583 99.960282690465 988 0.099987480333 0.100005809114 98.799992330215 9.8799984912896
75	1793921 27294 1097 542827 1.260290840583 99.960282690465 988 1 1 988 988
76	1821215 40043 1097 542827 1.260290840583 99.960282690465 988 0.099987480333 0.100005809114 98.799992330215 9.8799984912896
77	1861258 27294 1097 542827 1.260290840583 99.960282690465 988 1 1 988 988
78	1888552 39997 1103 542815 1.260290860597 99.960282625174 988 0.099987480333 0.100005806286 98.79999224491 9.8799984742285
79	1928549 27262 1103 542815 1.260290860597 99.960282625174 988 2 2 1976 3952
80	1955811 39993 1109 542821 1.260290880611 99.96028265766 988 0.099987480333 0.100005806286 98.799992257382 9.879998476723
81	1995804 27263 1109 542821 1.260290880611 99.96028265766 988 3 3 2964 8892
82	2023067 40008 1115 542833 1.260290900624 99.960282848992 988 0.099987480333 0.100005806286 98.799992428701 9.8799985109867
83	2063075 27276 1115 542833 1.260290900624 99.960282848992 988 4 4 3952 15808
84	2090351 40022 1121 542809 1.260290920638 99.960282603506 988 0.099987480333 0.100005806287 98.799992163201 9.8799984578867
85	2130373 27278 1121 542809 1.260290920638 99.960282603506 988 5 5 4940 24700
86	2157651 40028 1127 542839 1.260290940652 99.960283275148 988 0.099987480333 0.100005806287 98.799992814829 9.8799985882124
87	2197679 27279 1127 542839 1.260290940652 99.960283275148 988 6 6 5928 35568
88	2224958 40023 1133 542845 1.260290960666 99.960283286234 988 0.099987480333 0.100005806287 98.799992805901 9.8799985864268
89	2264981 27273 1133 542845 1.260290960666 99.960283286234 988 7 7 6916 48412
90	2292254 40044 1170 542906 1.271698940652 99.971704275757 988 0.099987480335 0.100005806287 98.800005815438 9.8800011882029
91	2332298 27282 1170 542906 1.271698940652 99.971704275757 988 6 6 5928 35568
92	2359580 1460 5026 542916 2 100 99 0 0 0 0
93	2361040 2062 5026 542916 2 100 99 0.022473 0.027235601124 2.471798601124 0.061726400997586
94	2363102 1460 5026 542916 2 100 99 0 0 0 0
95	2364562 1460 5027 542917 2 100 99 1 1 99 99
96	2366022 2062 5027 542917 2 100 99 0.022473 0.026938480334 2.471501480334 0.061710304751705
97	2368084 1460 5027 542917 2 100 99 0 0 0 0
98	2369544 1460 5028 542918 2 100 99 2 2 198 396
99	2371004 2062 5028 542918 2 100 99 0.022473 0.027011360254 2.471574360254 0.061714236611771
100	2373066 1559 5028 542918 2 100 99 0 0 0 0
101	2374625 1559 5029 542919 2 100 99 3 3 297 891
102	2376184 2160 5029 542919 2 100 99 0.022473 0.02704460042 2.47160760042 0.061716033440877
103	2378344 1559 5029 542919 2 100 99 0 0 0 0
104	2379903 1559 5030 542920 2 100 99 4 4 396 1584
105	2381462 2161 5030 542920 2 100 99 0.022473 0.027011520365 2.471574520365 0.061714245261429
106	2383623 1559 5030 542920 2 100 99 0 0 0 0
107	2385182 1559 5031 542921 2 100 99 5 5 495 2475
108	2386741 2161 5031 542921 2 100 99 0.022473 0.027011480336 2.471574480336 0.061714243098942
109	2388902 1559 5031 542921 2 100 99 0 0 0 0
110	2390461 1559 5032 542922 2 100 99 6 6 594 3564
111	2392020 2161 5032 542922 2 100 99 0.022473 0.027106440308 2.471669440308 0.061719382135171
112	2394181 1559 5032 542922 2 100 99 0 0 0 0
113	2395740 1559 5033 542923 2 100 99 7 7 693 4851
114	2397299 2161 5033 542923 2 100 99 0.022473 0.027139520367 2.471702520367 0.061721176594751
115	2399460 1559 5033 542923 2 100 99 0 0 0 0

