version 3
run BreakRanksNoGui-814-20240710-17:49:24-276568
attr configname BreakRanksNoGui
attr datetime 20240710-17:49:24
attr datetimef 20240710-174924
attr experiment BreakRanksNoGui
attr inifile omnetpp.ini
attr iterationvars "$nCars=6, $platoonSize=6, $nLanes=1, $ploegH=0.5, $controller=1, $headway=0.1, $leaderHeadway=1.2, $leaderSpeed=130, $breakRanksSafetyDistance=3, $minSpeed=120, $maxSpeed=140, $beaconInterval=0.1, $priority=4, $packetSize=200, $sController=\"CACC\", $0=2, $1=0"
attr iterationvarsd nCars=6/platoonSize=6/nLanes=1/ploegH=0.5/controller=1/headway=0.1/leaderHeadway=1.2/leaderSpeed=130/breakRanksSafetyDistance=3/minSpeed=120/maxSpeed=140/beaconInterval=0.1/priority=4/packetSize=200/sController=CACC/2/0
attr iterationvarsf nCars=6,platoonSize=6,nLanes=1,ploegH=0.5,controller=1,headway=0.1,leaderHeadway=1.2,leaderSpeed=130,breakRanksSafetyDistance=3,minSpeed=120,maxSpeed=140,beaconInterval=0.1,priority=4,packetSize=200,sController=CACC,2,0-
attr measurement "$nCars=6, $platoonSize=6, $nLanes=1, $ploegH=0.5, $controller=1, $headway=0.1, $leaderHeadway=1.2, $leaderSpeed=130, $breakRanksSafetyDistance=3, $minSpeed=120, $maxSpeed=140, $beaconInterval=0.1, $priority=4, $packetSize=200, $sController=\"CACC\", $0=2, $1=0"
attr network Highway
attr processid 276568
attr repetition 4
attr replication #4
attr resultdir results
attr runnumber 814
attr seedset 4
itervar beaconInterval 0.1
itervar breakRanksSafetyDistance 3
itervar controller 1
itervar headway 0.1
itervar leaderHeadway 1.2
itervar leaderSpeed 130
itervar maxSpeed 140
itervar minSpeed 120
itervar nCars 6
itervar nLanes 1
itervar packetSize 200
itervar platoonSize 6
itervar ploegH 0.5
itervar priority 4
itervar sController "\"CACC\""
config image-path ../../../veins/images
config repeat 10
config extends BreakRanks
config *.manager.command "\"sumo\""
config *.manager.ignoreGuiCommands true
config output-vector-file "results/BreakRanks_1_0.1_130_3_6 /result_4.vec"
config output-scalar-file "results/BreakRanks_1_0.1_130_3_6 /result_4.sca"
config extends Platooning
config *.node[*].scenario_type "\"BreakRanksScenario\""
config *.manager.command "\"sumo-gui\""
config *.node[*].scenario_type "\"SimpleScenario\""
config cmdenv-express-mode true
config cmdenv-autoflush true
config cmdenv-status-frequency 15s
config num-rngs 6
config network Highway
config debug-on-errors true
config print-undisposed true
config *.playgroundSizeX 65000m
config *.playgroundSizeY 25000m
config *.playgroundSizeZ 50m
config sim-time-limit "100 s"
config *.annotations.draw false
config *.obstacles.debug false
config *.world.useTorus false
config *.world.use2D false
config *.manager.updateInterval 0.01s
config *.manager.host "\"localhost\""
config *.manager.moduleType "\"org.car2x.plexe.PlatoonCar\""
config *.manager.moduleName "\"node\""
config *.manager.moduleDisplayString "\"\""
config *.manager.autoShutdown true
config *.manager.margin 25
config *.connectionManager.sendDirect true
config *.connectionManager.maxInterfDist 2600m
config *.connectionManager.drawMaxIntfDist false
config *.**.nic.mac1609_4.useServiceChannel false
config *.**.nic.mac1609_4.txPower 100mW
config *.**.nic.mac1609_4.bitrate 6Mbps
config *.**.nic.mac1609_4.useAcks true
config *.**.nic.mac1609_4.ackErrorRate 0.0
config *.**.nic.mac1609_4.frameErrorRate 0.0
config *.**.nic.phy80211p.minPowerLevel -94dBm
config *.**.nic.phy80211p.maxTXPower 100mW
config *.**.nic.phy80211p.useNoiseFloor true
config *.**.nic.phy80211p.noiseFloor -95dBm
config *.**.nic.phy80211p.decider "xmldoc(\"config.xml\")"
config *.**.nic.phy80211p.analogueModels "xmldoc(\"config.xml\")"
config *.**.nic.phy80211p.usePropagationDelay true
config *.node[*].mobility.x 0
config *.node[*].mobility.y 0
config *.node[*].mobility.z 1.895
config seed-set 4
config **.seed 4
config *.node[*].prot.rng-0 2
config *.node[*].appl.rng-0 3
config *.node[*].scenario.rng-0 4
config **.traffic.rng-0 5
config *.manager.configFile "\"./sumocfg/freeway.sumo.cfg\""
config *.manager.launchConfig "xmldoc(\"./sumocfg/freeway.launchd.xml\")"
config **.numberOfCars 6
config **.numberOfCarsPerPlatoon 6
config **.numberOfLanes 1
config *.node[*].helper_type "\"PositionHelper\""
config *.node[*].scenario.caccC1 0.5
config *.node[*].scenario.caccXi 1
config *.node[*].scenario.caccOmegaN "0.2 Hz"
config *.node[*].scenario.caccSpacing "2 m"
config *.node[*].scenario.engineTau "0.5 s"
config *.node[*].scenario.ploegH 0.5s
config *.node[*].scenario.ploegKp 0.2
config *.node[*].scenario.ploegKd 0.7
config *.node[*].scenario.useRealisticEngine false
config *.node[*].scenario.useControllerAcceleration true
config *.node[*].scenario.nLanes 1
config **.numericController 1
config **.headway 0.1s
config *.node[*].scenario.accHeadway 0.1s
config *.node[*].scenario.leaderHeadway 1.2s
config *.node[*].scenario.leaderSpeed 130kmph
config *.node[*].appl_type "\"SimplePlatooningApp\""
config *.node[*].appl.*.scalar-recording true
config *.node[*].appl.*.vector-recording true
config *.node[0].appl.breakRanksSafetyDistance 3m
config *.node[*].appl.minSpeed 120kmph
config *.node[*].appl.maxSpeed 140kmph
config *.node[*].protocol_type "\"SimplePlatooningBeaconing\""
config *.node[*].prot.*.scalar-recording true
config *.node[*].prot.*.vector-recording true
config *.node[*].prot.beaconingInterval 0.1s
config *.node[*].prot.priority 4
config *.node[*].prot.packetSize 200
config **.traffic_type "\"PlatoonsTrafficManager\""
config **.traffic.platoonInsertTime "1 s"
config **.traffic.platoonInsertSpeed 130kmph
config **.traffic.nCars 6
config **.traffic.platoonSize 6
config **.traffic.nLanes 1
config **.traffic.platooningVType "\"vtypeauto\""
config **.traffic.controller "\"CACC\""
config **.traffic.platoonInsertDistance 2m
config **.traffic.platoonInsertHeadway 0s
config **.traffic.platoonLeaderHeadway 1.2s
config **.scalar-recording false
config **.vector-recording false

vector 0 Highway.node[0].appl distance ETV
vector 1 Highway.node[0].appl relativeSpeed ETV
vector 2 Highway.node[0].appl nodeId ETV
vector 3 Highway.node[0].appl acceleration ETV
vector 4 Highway.node[0].appl controllerAcceleration ETV
vector 5 Highway.node[0].appl speed ETV
vector 6 Highway.node[0].appl posx ETV
vector 7 Highway.node[0].appl posy ETV
vector 8 Highway.node[1].appl distance ETV
vector 9 Highway.node[1].appl relativeSpeed ETV
vector 10 Highway.node[1].appl nodeId ETV
vector 11 Highway.node[1].appl acceleration ETV
vector 12 Highway.node[1].appl controllerAcceleration ETV
vector 13 Highway.node[1].appl speed ETV
vector 14 Highway.node[1].appl posx ETV
vector 15 Highway.node[1].appl posy ETV
vector 16 Highway.node[2].appl distance ETV
vector 17 Highway.node[2].appl relativeSpeed ETV
vector 18 Highway.node[2].appl nodeId ETV
vector 19 Highway.node[2].appl acceleration ETV
vector 20 Highway.node[2].appl controllerAcceleration ETV
vector 21 Highway.node[2].appl speed ETV
vector 22 Highway.node[2].appl posx ETV
vector 23 Highway.node[2].appl posy ETV
vector 24 Highway.node[3].appl distance ETV
vector 25 Highway.node[3].appl relativeSpeed ETV
vector 26 Highway.node[3].appl nodeId ETV
vector 27 Highway.node[3].appl acceleration ETV
vector 28 Highway.node[3].appl controllerAcceleration ETV
vector 29 Highway.node[3].appl speed ETV
vector 30 Highway.node[3].appl posx ETV
vector 31 Highway.node[3].appl posy ETV
vector 32 Highway.node[4].appl distance ETV
vector 33 Highway.node[4].appl relativeSpeed ETV
vector 34 Highway.node[4].appl nodeId ETV
vector 35 Highway.node[4].appl acceleration ETV
vector 36 Highway.node[4].appl controllerAcceleration ETV
vector 37 Highway.node[4].appl speed ETV
vector 38 Highway.node[4].appl posx ETV
vector 39 Highway.node[4].appl posy ETV
vector 40 Highway.node[5].appl distance ETV
vector 41 Highway.node[5].appl relativeSpeed ETV
vector 42 Highway.node[5].appl nodeId ETV
vector 43 Highway.node[5].appl acceleration ETV
vector 44 Highway.node[5].appl controllerAcceleration ETV
vector 45 Highway.node[5].appl speed ETV
vector 46 Highway.node[5].appl posx ETV
vector 47 Highway.node[5].appl posy ETV
vector 48 Highway.node[4].prot frontDelay ETV
vector 49 Highway.node[4].prot frontDelayId ETV
vector 50 Highway.node[1].prot leaderDelay ETV
vector 51 Highway.node[1].prot leaderDelayId ETV
vector 52 Highway.node[1].prot frontDelay ETV
vector 53 Highway.node[1].prot frontDelayId ETV
vector 54 Highway.node[2].prot leaderDelay ETV
vector 55 Highway.node[2].prot leaderDelayId ETV
vector 56 Highway.node[3].prot leaderDelay ETV
vector 57 Highway.node[3].prot leaderDelayId ETV
vector 58 Highway.node[4].prot leaderDelay ETV
vector 59 Highway.node[4].prot leaderDelayId ETV
vector 60 Highway.node[5].prot leaderDelay ETV
vector 61 Highway.node[5].prot leaderDelayId ETV
vector 62 Highway.node[3].prot frontDelay ETV
vector 63 Highway.node[3].prot frontDelayId ETV
vector 64 Highway.node[2].prot frontDelay ETV
vector 65 Highway.node[2].prot frontDelayId ETV
vector 66 Highway.node[5].prot frontDelay ETV
vector 67 Highway.node[5].prot frontDelayId ETV
vector 68 Highway.node[0].prot nodeId ETV
vector 69 Highway.node[0].prot busyTime ETV
vector 70 Highway.node[0].prot collisions ETV
vector 71 Highway.node[1].prot nodeId ETV
vector 72 Highway.node[1].prot busyTime ETV
vector 73 Highway.node[1].prot collisions ETV
vector 74 Highway.node[2].prot nodeId ETV
vector 75 Highway.node[2].prot busyTime ETV
vector 76 Highway.node[2].prot collisions ETV
vector 77 Highway.node[3].prot nodeId ETV
vector 78 Highway.node[3].prot busyTime ETV
vector 79 Highway.node[3].prot collisions ETV
vector 80 Highway.node[4].prot nodeId ETV
vector 81 Highway.node[4].prot busyTime ETV
vector 82 Highway.node[4].prot collisions ETV
vector 83 Highway.node[5].prot nodeId ETV
vector 84 Highway.node[5].prot busyTime ETV
vector 85 Highway.node[5].prot collisions ETV
0	113	1.11	-1
0	429	1.21	-1
0	745	1.31	-1
0	1061	1.41	-1
0	1377	1.51	-1
0	1693	1.61	-1
0	2009	1.71	-1
0	2325	1.81	-1
0	2641	1.91	-1
0	2963	2.01	-1
0	3279	2.11	-1
0	3595	2.21	-1
0	3911	2.31	-1
0	4227	2.41	-1
0	4543	2.51	-1
0	4859	2.61	-1
0	5175	2.71	-1
0	5491	2.81	-1
0	5807	2.91	-1
0	6129	3.01	-1
0	6445	3.11	-1
0	6761	3.21	-1
0	7077	3.31	-1
0	7393	3.41	-1
0	7709	3.51	-1
0	8025	3.61	-1
0	8341	3.71	-1
0	8657	3.81	-1
0	8973	3.91	-1
0	9295	4.01	-1
0	9611	4.11	-1
0	9927	4.21	-1
0	10243	4.31	-1
0	10559	4.41	-1
0	10875	4.51	-1
0	11191	4.61	-1
0	11507	4.71	-1
0	11823	4.81	-1
0	12139	4.91	-1
0	12461	5.01	-1
0	12777	5.11	-1
0	13093	5.21	-1
0	13409	5.31	-1
0	13725	5.41	-1
0	14041	5.51	-1
0	14357	5.61	-1
0	14673	5.71	-1
0	14989	5.81	-1
0	15305	5.91	-1
0	15627	6.01	-1
0	15943	6.11	-1
0	16259	6.21	-1
0	16575	6.31	-1
0	16891	6.41	-1
0	17207	6.51	-1
0	17523	6.61	-1
0	17839	6.71	-1
0	18155	6.81	-1
0	18471	6.91	-1
0	18793	7.01	-1
0	19109	7.11	-1
0	19425	7.21	-1
0	19741	7.31	-1
0	20057	7.41	-1
0	20373	7.51	-1
0	20689	7.61	-1
0	21005	7.71	-1
0	21321	7.81	-1
0	21637	7.91	-1
0	21959	8.01	-1
0	22275	8.11	-1
0	22591	8.21	-1
0	22907	8.31	-1
0	23223	8.41	-1
0	23539	8.51	-1
0	23855	8.61	-1
0	24171	8.71	-1
0	24487	8.81	-1
0	24803	8.91	-1
0	25125	9.01	-1
0	25441	9.11	-1
0	25757	9.21	-1
0	26073	9.31	-1
0	26389	9.41	-1
0	26705	9.51	-1
0	27021	9.61	-1
0	27337	9.71	-1
0	27653	9.81	-1
0	27969	9.91	-1
0	28347	10.01	-1
0	28668	10.11	-1
0	28989	10.21	-1
0	29310	10.31	-1
0	29631	10.41	-1
0	29952	10.51	-1
0	30273	10.61	-1
0	30594	10.71	-1
0	30915	10.81	-1
0	31236	10.91	-1
0	31563	11.01	-1
0	31884	11.11	-1
0	32205	11.21	-1
0	32526	11.31	-1
0	32847	11.41	-1
0	33168	11.51	-1
0	33489	11.61	-1
0	33810	11.71	-1
0	34131	11.81	-1
0	34452	11.91	-1
0	34779	12.01	-1
0	35100	12.11	-1
0	35421	12.21	-1
0	35742	12.31	-1
0	36063	12.41	-1
0	36384	12.51	-1
0	36705	12.61	-1
0	37026	12.71	-1
0	37347	12.81	-1
0	37668	12.91	-1
0	37995	13.01	-1
0	38316	13.11	-1
0	38637	13.21	-1
0	38958	13.31	-1
0	39279	13.41	-1
0	39600	13.51	-1
0	39921	13.61	-1
0	40242	13.71	-1
0	40563	13.81	-1
0	40884	13.91	-1
0	41211	14.01	-1
0	41532	14.11	-1
0	41853	14.21	-1
0	42174	14.31	-1
0	42495	14.41	-1
0	42816	14.51	-1
0	43137	14.61	-1
0	43458	14.71	-1
0	43779	14.81	-1
0	44100	14.91	-1
0	44427	15.01	-1
0	44748	15.11	-1
0	45069	15.21	-1
0	45390	15.31	-1
0	45711	15.41	-1
0	46032	15.51	-1
0	46353	15.61	-1
0	46674	15.71	-1
0	46995	15.81	-1
0	47316	15.91	-1
0	47643	16.01	-1
0	47964	16.11	-1
0	48285	16.21	-1
0	48606	16.31	-1
0	48927	16.41	-1
0	49248	16.51	-1
0	49569	16.61	-1
0	49890	16.71	-1
0	50211	16.81	-1
0	50532	16.91	-1
0	50859	17.01	-1
0	51180	17.11	-1
0	51501	17.21	-1
0	51822	17.31	-1
0	52143	17.41	-1
0	52464	17.51	-1
0	52785	17.61	-1
0	53106	17.71	-1
0	53427	17.81	-1
0	53748	17.91	-1
0	54075	18.01	-1
0	54396	18.11	-1
0	54717	18.21	-1
0	55038	18.31	-1
0	55359	18.41	-1
0	55680	18.51	-1
0	56001	18.61	-1
0	56322	18.71	-1
0	56643	18.81	-1
0	56964	18.91	-1
0	57291	19.01	-1
0	57612	19.11	-1
0	57933	19.21	-1
0	58254	19.31	-1
0	58575	19.41	-1
0	58896	19.51	-1
0	59217	19.61	-1
0	59538	19.71	-1
0	59859	19.81	-1
0	60180	19.91	-1
0	60507	20.01	-1
0	60828	20.11	-1
0	61149	20.21	-1
0	61470	20.31	-1
0	61791	20.41	-1
0	62112	20.51	-1
0	62433	20.61	-1
0	62754	20.71	-1
0	63075	20.81	-1
0	63396	20.91	-1
0	63723	21.01	-1
0	64044	21.11	-1
0	64365	21.21	-1
0	64686	21.31	-1
0	65007	21.41	-1
0	65328	21.51	-1
0	65649	21.61	-1
0	65970	21.71	-1
0	66291	21.81	-1
0	66612	21.91	-1
0	66939	22.01	-1
0	67260	22.11	-1
0	67581	22.21	-1
0	67902	22.31	-1
0	68223	22.41	-1
0	68544	22.51	-1
0	68865	22.61	-1
0	69186	22.71	-1
0	69507	22.81	-1
0	69828	22.91	-1
0	70155	23.01	-1
0	70476	23.11	-1
0	70797	23.21	-1
0	71118	23.31	-1
0	71439	23.41	-1
0	71760	23.51	-1
0	72081	23.61	-1
0	72402	23.71	-1
0	72723	23.81	-1
0	73044	23.91	-1
0	73371	24.01	-1
0	73692	24.11	-1
0	74013	24.21	-1
0	74334	24.31	-1
0	74655	24.41	-1
0	74976	24.51	-1
0	75297	24.61	-1
0	75618	24.71	-1
0	75939	24.81	-1
0	76260	24.91	-1
0	76587	25.01	-1
0	76908	25.11	-1
0	77229	25.21	-1
0	77550	25.31	-1
0	77871	25.41	-1
0	78192	25.51	-1
0	78513	25.61	-1
0	78834	25.71	-1
0	79155	25.81	-1
0	79476	25.91	-1
0	79803	26.01	-1
0	80124	26.11	-1
0	80445	26.21	-1
0	80766	26.31	-1
0	81087	26.41	-1
0	81408	26.51	-1
0	81729	26.61	-1
0	82050	26.71	-1
0	82371	26.81	-1
0	82692	26.91	-1
0	83019	27.01	-1
0	83340	27.11	-1
0	83661	27.21	-1
0	83982	27.31	-1
0	84303	27.41	-1
0	84624	27.51	-1
0	84945	27.61	-1
0	85266	27.71	-1
0	85587	27.81	-1
0	85908	27.91	-1
0	86235	28.01	-1
0	86556	28.11	-1
0	86877	28.21	-1
0	87198	28.31	-1
0	87519	28.41	-1
0	87840	28.51	-1
0	88161	28.61	-1
0	88482	28.71	-1
0	88803	28.81	-1
0	89124	28.91	-1
0	89451	29.01	-1
0	89772	29.11	-1
0	90093	29.21	-1
0	90487	29.31	-1
0	90807	29.41	-1
0	91127	29.51	-1
0	91447	29.61	-1
0	91767	29.71	-1
0	92087	29.81	-1
0	92407	29.91	-1
0	92733	30.01	-1
0	93053	30.11	-1
0	93373	30.21	-1
0	93693	30.31	-1
0	94013	30.41	-1
0	94333	30.51	-1
0	94653	30.61	-1
0	94973	30.71	-1
0	95293	30.81	-1
0	95613	30.91	-1
0	95939	31.01	-1
0	96259	31.11	-1
0	96579	31.21	-1
0	96899	31.31	-1
0	97219	31.41	-1
0	97539	31.51	-1
0	97859	31.61	-1
0	98179	31.71	-1
0	98499	31.81	-1
0	98819	31.91	-1
0	99145	32.01	-1
0	99465	32.11	-1
0	99785	32.21	-1
0	100105	32.31	-1
0	100425	32.41	-1
0	100745	32.51	-1
0	101065	32.61	-1
0	101385	32.71	-1
0	101705	32.81	-1
0	102025	32.91	-1
0	102351	33.01	-1
0	102671	33.11	-1
0	102991	33.21	-1
0	103311	33.31	-1
0	103631	33.41	-1
0	104024	33.51	-1
0	104343	33.61	-1
0	104662	33.71	-1
0	104981	33.81	-1
0	105300	33.91	-1
0	105625	34.01	-1
0	105944	34.11	-1
0	106263	34.21	-1
0	106582	34.31	-1
0	106901	34.41	-1
0	107220	34.51	-1
0	107539	34.61	-1
0	107858	34.71	-1
0	108177	34.81	-1
0	108496	34.91	-1
0	108821	35.01	-1
0	109140	35.11	-1
0	109459	35.21	-1
0	109778	35.31	-1
0	110097	35.41	-1
0	110416	35.51	-1
0	110735	35.61	-1
0	111054	35.71	-1
0	111373	35.81	-1
0	111692	35.91	-1
0	112017	36.01	-1
0	112336	36.11	-1
0	112655	36.21	-1
0	112974	36.31	-1
0	113293	36.41	-1
0	113612	36.51	-1
0	113931	36.61	-1
0	114250	36.71	-1
0	114569	36.81	-1
0	114888	36.91	-1
0	115213	37.01	-1
0	115532	37.11	-1
0	115851	37.21	-1
0	116170	37.31	-1
0	116489	37.41	-1
0	116881	37.51	-1
0	117199	37.61	-1
0	117517	37.71	-1
0	117835	37.81	-1
0	118153	37.91	-1
0	118477	38.01	-1
0	118795	38.11	-1
0	119113	38.21	-1
0	119431	38.31	-1
0	119749	38.41	-1
0	120067	38.51	-1
0	120385	38.61	-1
0	120703	38.71	-1
0	121021	38.81	-1
0	121339	38.91	-1
0	121663	39.01	-1
0	121981	39.11	-1
0	122299	39.21	-1
0	122617	39.31	-1
0	122935	39.41	-1
0	123253	39.51	-1
0	123571	39.61	-1
0	123889	39.71	-1
0	124207	39.81	-1
0	124525	39.91	-1
0	124849	40.01	-1
0	125167	40.11	-1
0	125485	40.21	-1
0	125803	40.31	-1
0	126121	40.41	-1
0	126439	40.51	-1
0	126757	40.61	-1
0	127075	40.71	-1
0	127393	40.81	-1
0	127711	40.91	-1
0	128035	41.01	-1
0	128353	41.11	-1
0	128671	41.21	-1
0	129062	41.31	-1
0	129379	41.41	-1
0	129696	41.51	-1
0	130013	41.61	-1
0	130330	41.71	-1
0	130647	41.81	-1
0	130964	41.91	-1
0	131287	42.01	-1
0	131604	42.11	-1
0	131921	42.21	-1
0	132238	42.31	-1
0	132555	42.41	-1
0	132872	42.51	-1
0	133189	42.61	-1
0	133506	42.71	-1
0	133823	42.81	-1
0	134140	42.91	-1
0	134463	43.01	-1
0	134780	43.11	-1
0	135097	43.21	-1
0	135414	43.31	-1
0	135731	43.41	-1
0	136048	43.51	-1
0	136365	43.61	-1
0	136682	43.71	-1
0	136999	43.81	-1
0	137316	43.91	-1
0	137639	44.01	-1
0	137956	44.11	-1
0	138273	44.21	-1
0	138590	44.31	-1
0	138907	44.41	-1
0	139224	44.51	-1
0	139541	44.61	-1
0	139858	44.71	-1
0	140175	44.81	-1
0	140492	44.91	-1
0	141253	45.01	-1
0	141569	45.11	-1
0	141885	45.21	-1
0	142201	45.31	-1
0	142517	45.41	-1
0	142833	45.51	-1
0	143149	45.61	-1
0	143465	45.71	-1
0	143781	45.81	-1
0	144097	45.91	-1
0	144419	46.01	-1
0	144735	46.11	-1
0	145051	46.21	-1
0	145367	46.31	-1
0	145683	46.41	-1
0	145999	46.51	-1
0	146315	46.61	-1
0	146631	46.71	-1
0	146947	46.81	-1
0	147263	46.91	-1
0	147585	47.01	-1
0	147901	47.11	-1
0	148217	47.21	-1
0	148533	47.31	-1
0	148849	47.41	-1
0	149165	47.51	-1
0	149481	47.61	-1
0	149797	47.71	-1
0	150113	47.81	-1
0	150429	47.91	-1
0	150751	48.01	-1
0	151067	48.11	-1
0	151383	48.21	-1
0	151699	48.31	-1
0	152015	48.41	-1
0	152331	48.51	-1
0	152647	48.61	-1
0	152963	48.71	-1
0	153279	48.81	-1
0	153595	48.91	-1
0	153917	49.01	-1
0	154233	49.11	-1
0	154549	49.21	-1
0	154865	49.31	-1
0	155181	49.41	-1
0	155497	49.51	-1
0	155813	49.61	-1
0	156129	49.71	-1
0	156445	49.81	-1
0	156761	49.91	-1
0	157083	50.01	-1
0	157399	50.11	-1
0	157715	50.21	-1
0	158031	50.31	-1
0	158347	50.41	-1
0	158663	50.51	-1
0	158979	50.61	-1
0	159295	50.71	-1
0	159611	50.81	-1
0	159927	50.91	-1
0	160249	51.01	-1
0	160565	51.11	-1
0	160881	51.21	-1
0	161197	51.31	-1
0	161513	51.41	-1
0	161829	51.51	-1
0	162145	51.61	-1
0	162461	51.71	-1
0	162777	51.81	-1
0	163093	51.91	-1
0	163415	52.01	-1
0	163731	52.11	-1
0	164047	52.21	-1
0	164363	52.31	-1
0	164679	52.41	-1
0	164995	52.51	-1
0	165311	52.61	-1
0	165627	52.71	-1
0	165943	52.81	-1
0	166259	52.91	-1
0	166581	53.01	-1
0	166897	53.11	-1
0	167213	53.21	-1
0	167529	53.31	-1
0	167845	53.41	-1
0	168161	53.51	-1
0	168477	53.61	-1
0	168793	53.71	-1
0	169109	53.81	-1
0	169425	53.91	-1
0	169747	54.01	-1
0	170063	54.11	-1
0	170379	54.21	-1
0	170695	54.31	-1
0	171011	54.41	-1
0	171327	54.51	-1
0	171643	54.61	-1
0	171959	54.71	-1
0	172275	54.81	-1
0	172591	54.91	-1
0	172913	55.01	-1
0	173229	55.11	-1
0	173545	55.21	-1
0	173861	55.31	-1
0	174177	55.41	-1
0	174493	55.51	-1
0	174809	55.61	-1
0	175125	55.71	-1
0	175441	55.81	-1
0	175757	55.91	-1
0	176079	56.01	-1
0	176395	56.11	-1
0	176711	56.21	-1
0	177027	56.31	-1
0	177343	56.41	-1
0	177659	56.51	-1
0	177975	56.61	-1
0	178291	56.71	-1
0	178607	56.81	-1
0	178923	56.91	-1
0	179245	57.01	-1
0	179561	57.11	-1
0	179877	57.21	-1
0	180193	57.31	-1
0	180509	57.41	-1
0	180825	57.51	-1
0	181141	57.61	-1
0	181457	57.71	-1
0	181773	57.81	-1
0	182089	57.91	-1
0	182411	58.01	-1
0	182727	58.11	-1
0	183043	58.21	-1
0	183359	58.31	-1
0	183675	58.41	-1
0	183991	58.51	-1
0	184307	58.61	-1
0	184623	58.71	-1
0	184939	58.81	-1
0	185255	58.91	-1
0	185577	59.01	-1
0	185893	59.11	-1
0	186209	59.21	-1
0	186525	59.31	-1
0	186841	59.41	-1
0	187157	59.51	-1
0	187473	59.61	-1
0	187789	59.71	-1
0	188105	59.81	-1
0	188421	59.91	-1
0	188743	60.01	-1
0	189059	60.11	-1
0	189375	60.21	-1
0	189691	60.31	-1
0	190007	60.41	-1
0	190323	60.51	-1
0	190639	60.61	-1
0	190955	60.71	-1
0	191271	60.81	-1
0	191587	60.91	-1
0	191909	61.01	-1
0	192225	61.11	-1
0	192541	61.21	-1
0	192857	61.31	-1
0	193173	61.41	-1
0	193489	61.51	-1
0	193805	61.61	-1
0	194121	61.71	-1
0	194437	61.81	-1
0	194753	61.91	-1
0	195075	62.01	-1
0	195391	62.11	-1
0	195707	62.21	-1
0	196023	62.31	-1
0	196339	62.41	-1
0	196655	62.51	-1
0	196971	62.61	-1
0	197287	62.71	-1
0	197603	62.81	-1
0	197919	62.91	-1
0	198241	63.01	-1
0	198557	63.11	-1
0	198873	63.21	-1
0	199189	63.31	-1
0	199505	63.41	-1
0	199821	63.51	-1
0	200137	63.61	-1
0	200453	63.71	-1
0	200769	63.81	-1
0	201085	63.91	-1
0	201407	64.01	-1
0	201723	64.11	-1
0	202039	64.21	-1
0	202355	64.31	-1
0	202671	64.41	-1
0	202987	64.51	-1
0	203303	64.61	-1
0	203619	64.71	-1
0	203935	64.81	-1
0	204251	64.91	-1
0	204573	65.01	-1
0	204889	65.11	-1
0	205205	65.21	-1
0	205521	65.31	-1
0	205837	65.41	-1
0	206153	65.51	-1
0	206469	65.61	-1
0	206785	65.71	-1
0	207101	65.81	-1
0	207417	65.91	-1
0	207739	66.01	-1
0	208055	66.11	-1
0	208371	66.21	-1
0	208687	66.31	-1
0	209003	66.41	-1
0	209319	66.51	-1
0	209635	66.61	-1
0	209951	66.71	-1
0	210267	66.81	-1
0	210583	66.91	-1
0	210905	67.01	-1
0	211221	67.11	-1
0	211537	67.21	-1
0	211853	67.31	-1
0	212169	67.41	-1
0	212485	67.51	-1
0	212801	67.61	-1
0	213117	67.71	-1
0	213433	67.81	-1
0	213749	67.91	-1
0	214071	68.01	-1
0	214387	68.11	-1
0	214703	68.21	-1
0	215019	68.31	-1
0	215335	68.41	-1
0	215651	68.51	-1
0	215967	68.61	-1
0	216283	68.71	-1
0	216599	68.81	-1
0	216915	68.91	-1
0	217237	69.01	-1
0	217553	69.11	-1
0	217869	69.21	-1
0	218185	69.31	-1
0	218501	69.41	-1
0	218817	69.51	-1
0	219133	69.61	-1
0	219449	69.71	-1
0	219765	69.81	-1
0	220081	69.91	-1
0	220403	70.01	-1
0	220719	70.11	-1
0	221035	70.21	-1
0	221351	70.31	-1
0	221667	70.41	-1
0	221983	70.51	-1
0	222299	70.61	-1
0	222615	70.71	-1
0	222931	70.81	-1
0	223247	70.91	-1
0	223569	71.01	-1
0	223885	71.11	-1
0	224201	71.21	-1
0	224517	71.31	-1
0	224833	71.41	-1
0	225149	71.51	-1
0	225465	71.61	-1
0	225781	71.71	-1
0	226097	71.81	-1
0	226413	71.91	-1
0	226735	72.01	-1
0	227051	72.11	-1
0	227367	72.21	-1
0	227683	72.31	-1
0	227999	72.41	-1
0	228315	72.51	-1
0	228631	72.61	-1
0	228947	72.71	-1
0	229263	72.81	-1
0	229579	72.91	-1
0	229901	73.01	-1
0	230217	73.11	-1
0	230533	73.21	-1
0	230849	73.31	-1
0	231165	73.41	-1
0	231481	73.51	-1
0	231797	73.61	-1
0	232113	73.71	-1
0	232429	73.81	-1
0	232745	73.91	-1
0	233067	74.01	-1
0	233383	74.11	-1
0	233699	74.21	-1
0	234015	74.31	-1
0	234331	74.41	-1
0	234647	74.51	-1
0	234963	74.61	-1
0	235279	74.71	-1
0	235595	74.81	-1
0	235911	74.91	-1
0	236233	75.01	-1
0	236549	75.11	-1
0	236865	75.21	-1
0	237181	75.31	-1
0	237497	75.41	-1
0	237813	75.51	-1
0	238129	75.61	-1
0	238445	75.71	-1
0	238761	75.81	-1
0	239077	75.91	-1
0	239399	76.01	-1
0	239715	76.11	-1
0	240031	76.21	-1
0	240347	76.31	-1
0	240663	76.41	-1
0	240979	76.51	-1
0	241295	76.61	-1
0	241611	76.71	-1
0	241927	76.81	-1
0	242243	76.91	-1
0	242565	77.01	-1
0	242881	77.11	-1
0	243197	77.21	-1
0	243513	77.31	-1
0	243829	77.41	-1
0	244145	77.51	-1
0	244461	77.61	-1
0	244777	77.71	-1
0	245093	77.81	-1
0	245409	77.91	-1
0	245731	78.01	-1
0	246047	78.11	-1
0	246363	78.21	-1
0	246679	78.31	-1
0	246995	78.41	-1
0	247311	78.51	-1
0	247627	78.61	-1
0	247943	78.71	-1
0	248259	78.81	-1
0	248575	78.91	-1
0	248897	79.01	-1
0	249213	79.11	-1
0	249529	79.21	-1
0	249845	79.31	-1
0	250161	79.41	-1
0	250477	79.51	-1
0	250793	79.61	-1
0	251109	79.71	-1
0	251425	79.81	-1
0	251741	79.91	-1
0	252063	80.01	-1
0	252379	80.11	-1
0	252695	80.21	-1
0	253011	80.31	-1
0	253327	80.41	-1
0	253643	80.51	-1
0	253959	80.61	-1
0	254275	80.71	-1
0	254591	80.81	-1
0	254907	80.91	-1
0	255229	81.01	-1
0	255545	81.11	-1
0	255861	81.21	-1
0	256177	81.31	-1
0	256493	81.41	-1
0	256809	81.51	-1
0	257125	81.61	-1
0	257441	81.71	-1
0	257757	81.81	-1
0	258073	81.91	-1
0	258395	82.01	-1
0	258711	82.11	-1
0	259027	82.21	-1
0	259343	82.31	-1
0	259659	82.41	-1
0	259975	82.51	-1
0	260291	82.61	-1
0	260607	82.71	-1
0	260923	82.81	-1
0	261239	82.91	-1
0	261561	83.01	-1
0	261877	83.11	-1
0	262193	83.21	-1
0	262509	83.31	-1
0	262825	83.41	-1
0	263141	83.51	-1
0	263457	83.61	-1
0	263773	83.71	-1
0	264089	83.81	-1
0	264405	83.91	-1
0	264727	84.01	-1
0	265043	84.11	-1
0	265359	84.21	-1
0	265675	84.31	-1
0	265991	84.41	-1
0	266307	84.51	-1
0	266623	84.61	-1
0	266939	84.71	-1
0	267255	84.81	-1
0	267571	84.91	-1
0	267893	85.01	-1
0	268209	85.11	-1
0	268525	85.21	-1
0	268841	85.31	-1
0	269157	85.41	-1
0	269473	85.51	-1
0	269789	85.61	-1
0	270105	85.71	-1
0	270421	85.81	-1
0	270737	85.91	-1
0	271059	86.01	-1
0	271375	86.11	-1
0	271691	86.21	-1
0	272007	86.31	-1
0	272323	86.41	-1
0	272639	86.51	-1
0	272955	86.61	-1
0	273271	86.71	-1
0	273587	86.81	-1
0	273903	86.91	-1
0	274225	87.01	-1
0	274541	87.11	-1
0	274857	87.21	-1
0	275173	87.31	-1
0	275489	87.41	-1
0	275805	87.51	-1
0	276121	87.61	-1
0	276437	87.71	-1
0	276753	87.81	-1
0	277069	87.91	-1
0	277391	88.01	-1
0	277707	88.11	-1
0	278023	88.21	-1
0	278339	88.31	-1
0	278655	88.41	-1
0	278971	88.51	-1
0	279287	88.61	-1
0	279603	88.71	-1
0	279919	88.81	-1
0	280235	88.91	-1
0	280557	89.01	-1
0	280873	89.11	-1
0	281189	89.21	-1
0	281505	89.31	-1
0	281821	89.41	-1
0	282137	89.51	-1
0	282453	89.61	-1
0	282769	89.71	-1
0	283085	89.81	-1
0	283401	89.91	-1
0	283723	90.01	-1
0	284039	90.11	-1
0	284355	90.21	-1
0	284671	90.31	-1
0	284987	90.41	-1
0	285303	90.51	-1
0	285619	90.61	-1
0	285935	90.71	-1
0	286251	90.81	-1
0	286567	90.91	-1
0	286889	91.01	-1
0	287205	91.11	-1
0	287521	91.21	-1
0	287837	91.31	-1
0	288153	91.41	-1
0	288469	91.51	-1
0	288785	91.61	-1
0	289101	91.71	-1
0	289417	91.81	-1
0	289733	91.91	-1
0	290055	92.01	-1
0	290371	92.11	-1
0	290687	92.21	-1
0	291003	92.31	-1
0	291319	92.41	-1
0	291635	92.51	-1
0	291951	92.61	-1
0	292267	92.71	-1
0	292583	92.81	-1
0	292899	92.91	-1
0	293221	93.01	-1
0	293537	93.11	-1
0	293853	93.21	-1
0	294169	93.31	-1
0	294485	93.41	-1
0	294801	93.51	-1
0	295117	93.61	-1
0	295433	93.71	-1
0	295749	93.81	-1
0	296065	93.91	-1
0	296387	94.01	-1
0	296703	94.11	-1
0	297019	94.21	-1
0	297335	94.31	-1
0	297651	94.41	-1
0	297967	94.51	-1
0	298283	94.61	-1
0	298599	94.71	-1
0	298915	94.81	-1
0	299231	94.91	-1
0	299553	95.01	32.5238
0	299869	95.11	32.6129
0	300185	95.21	32.7027
0	300501	95.31	32.7936
0	300817	95.41	32.8859
0	301133	95.51	32.9799
0	301449	95.61	33.0757
0	301765	95.71	33.1734
0	302081	95.81	33.273
0	302397	95.91	33.3744
0	302719	96.01	33.4776
0	303035	96.11	33.5824
0	303351	96.21	33.6888
0	303667	96.31	33.7966
0	303983	96.41	33.9056
0	304299	96.51	34.0156
0	304615	96.61	34.1266
0	304931	96.71	34.2382
0	305247	96.81	34.3504
0	305563	96.91	34.463
0	305885	97.01	34.5757
0	306201	97.11	34.6886
0	306517	97.21	34.8013
0	306833	97.31	34.9139
0	307149	97.41	35.0261
0	307465	97.51	35.1379
0	307781	97.61	35.2491
0	308097	97.71	35.3597
0	308413	97.81	35.4696
0	308729	97.91	35.5787
0	309051	98.01	35.6869
0	309367	98.11	35.7943
0	309683	98.21	35.9007
0	309999	98.31	36.0062
0	310315	98.41	36.1106
0	310631	98.51	36.2141
0	310947	98.61	36.3164
0	311263	98.71	36.4178
0	311579	98.81	36.518
0	311895	98.91	36.6172
0	312217	99.01	36.7154
0	312533	99.11	36.8125
0	312849	99.21	36.9086
0	313165	99.31	37.0037
0	313481	99.41	37.098
0	313797	99.51	37.1915
0	314113	99.61	37.2842
0	314429	99.71	37.3762
0	314745	99.81	37.4675
0	315061	99.91	37.5584
1	113	1.11	0
1	429	1.21	0
1	745	1.31	0
1	1061	1.41	0
1	1377	1.51	0
1	1693	1.61	0
1	2009	1.71	0
1	2325	1.81	0
1	2641	1.91	0
1	2963	2.01	0
1	3279	2.11	0
1	3595	2.21	0
1	3911	2.31	0
1	4227	2.41	0
1	4543	2.51	0
1	4859	2.61	0
1	5175	2.71	0
1	5491	2.81	0
1	5807	2.91	0
1	6129	3.01	0
1	6445	3.11	0
1	6761	3.21	0
1	7077	3.31	0
1	7393	3.41	0
1	7709	3.51	0
1	8025	3.61	0
1	8341	3.71	0
1	8657	3.81	0
1	8973	3.91	0
1	9295	4.01	0
1	9611	4.11	0
1	9927	4.21	0
1	10243	4.31	0
1	10559	4.41	0
1	10875	4.51	0
1	11191	4.61	0
1	11507	4.71	0
1	11823	4.81	0
1	12139	4.91	0
1	12461	5.01	0
1	12777	5.11	0
1	13093	5.21	0
1	13409	5.31	0
1	13725	5.41	0
1	14041	5.51	0
1	14357	5.61	0
1	14673	5.71	0
1	14989	5.81	0
1	15305	5.91	0
1	15627	6.01	0
1	15943	6.11	0
1	16259	6.21	0
1	16575	6.31	0
1	16891	6.41	0
1	17207	6.51	0
1	17523	6.61	0
1	17839	6.71	0
1	18155	6.81	0
1	18471	6.91	0
1	18793	7.01	0
1	19109	7.11	0
1	19425	7.21	0
1	19741	7.31	0
1	20057	7.41	0
1	20373	7.51	0
1	20689	7.61	0
1	21005	7.71	0
1	21321	7.81	0
1	21637	7.91	0
1	21959	8.01	0
1	22275	8.11	0
1	22591	8.21	0
1	22907	8.31	0
1	23223	8.41	0
1	23539	8.51	0
1	23855	8.61	0
1	24171	8.71	0
1	24487	8.81	0
1	24803	8.91	0
1	25125	9.01	0
1	25441	9.11	0
1	25757	9.21	0
1	26073	9.31	0
1	26389	9.41	0
1	26705	9.51	0
1	27021	9.61	0
1	27337	9.71	0
1	27653	9.81	0
1	27969	9.91	0
1	28347	10.01	0
1	28668	10.11	0
1	28989	10.21	0
1	29310	10.31	0
1	29631	10.41	0
1	29952	10.51	0
1	30273	10.61	0
1	30594	10.71	0
1	30915	10.81	0
1	31236	10.91	0
1	31563	11.01	0
1	31884	11.11	0
1	32205	11.21	0
1	32526	11.31	0
1	32847	11.41	0
1	33168	11.51	0
1	33489	11.61	0
1	33810	11.71	0
1	34131	11.81	0
1	34452	11.91	0
1	34779	12.01	0
1	35100	12.11	0
1	35421	12.21	0
1	35742	12.31	0
1	36063	12.41	0
1	36384	12.51	0
1	36705	12.61	0
1	37026	12.71	0
1	37347	12.81	0
1	37668	12.91	0
1	37995	13.01	0
1	38316	13.11	0
1	38637	13.21	0
1	38958	13.31	0
1	39279	13.41	0
1	39600	13.51	0
1	39921	13.61	0
1	40242	13.71	0
1	40563	13.81	0
1	40884	13.91	0
1	41211	14.01	0
1	41532	14.11	0
1	41853	14.21	0
1	42174	14.31	0
1	42495	14.41	0
1	42816	14.51	0
1	43137	14.61	0
1	43458	14.71	0
1	43779	14.81	0
1	44100	14.91	0
1	44427	15.01	0
1	44748	15.11	0
1	45069	15.21	0
1	45390	15.31	0
1	45711	15.41	0
1	46032	15.51	0
1	46353	15.61	0
1	46674	15.71	0
1	46995	15.81	0
1	47316	15.91	0
1	47643	16.01	0
1	47964	16.11	0
1	48285	16.21	0
1	48606	16.31	0
1	48927	16.41	0
1	49248	16.51	0
1	49569	16.61	0
1	49890	16.71	0
1	50211	16.81	0
1	50532	16.91	0
1	50859	17.01	0
1	51180	17.11	0
1	51501	17.21	0
1	51822	17.31	0
1	52143	17.41	0
1	52464	17.51	0
1	52785	17.61	0
1	53106	17.71	0
1	53427	17.81	0
1	53748	17.91	0
1	54075	18.01	0
1	54396	18.11	0
1	54717	18.21	0
1	55038	18.31	0
1	55359	18.41	0
1	55680	18.51	0
1	56001	18.61	0
1	56322	18.71	0
1	56643	18.81	0
1	56964	18.91	0
1	57291	19.01	0
1	57612	19.11	0
1	57933	19.21	0
1	58254	19.31	0
1	58575	19.41	0
1	58896	19.51	0
1	59217	19.61	0
1	59538	19.71	0
1	59859	19.81	0
1	60180	19.91	0
1	60507	20.01	0
1	60828	20.11	0
1	61149	20.21	0
1	61470	20.31	0
1	61791	20.41	0
1	62112	20.51	0
1	62433	20.61	0
1	62754	20.71	0
1	63075	20.81	0
1	63396	20.91	0
1	63723	21.01	0
1	64044	21.11	0
1	64365	21.21	0
1	64686	21.31	0
1	65007	21.41	0
1	65328	21.51	0
1	65649	21.61	0
1	65970	21.71	0
1	66291	21.81	0
1	66612	21.91	0
1	66939	22.01	0
1	67260	22.11	0
1	67581	22.21	0
1	67902	22.31	0
1	68223	22.41	0
1	68544	22.51	0
1	68865	22.61	0
1	69186	22.71	0
1	69507	22.81	0
1	69828	22.91	0
1	70155	23.01	0
1	70476	23.11	0
1	70797	23.21	0
1	71118	23.31	0
1	71439	23.41	0
1	71760	23.51	0
1	72081	23.61	0
1	72402	23.71	0
1	72723	23.81	0
1	73044	23.91	0
1	73371	24.01	0
1	73692	24.11	0
1	74013	24.21	0
1	74334	24.31	0
1	74655	24.41	0
1	74976	24.51	0
1	75297	24.61	0
1	75618	24.71	0
1	75939	24.81	0
1	76260	24.91	0
1	76587	25.01	0
1	76908	25.11	0
1	77229	25.21	0
1	77550	25.31	0
1	77871	25.41	0
1	78192	25.51	0
1	78513	25.61	0
1	78834	25.71	0
1	79155	25.81	0
1	79476	25.91	0
1	79803	26.01	0
1	80124	26.11	0
1	80445	26.21	0
1	80766	26.31	0
1	81087	26.41	0
1	81408	26.51	0
1	81729	26.61	0
1	82050	26.71	0
1	82371	26.81	0
1	82692	26.91	0
1	83019	27.01	0
1	83340	27.11	0
1	83661	27.21	0
1	83982	27.31	0
1	84303	27.41	0
1	84624	27.51	0
1	84945	27.61	0
1	85266	27.71	0
1	85587	27.81	0
1	85908	27.91	0
1	86235	28.01	0
1	86556	28.11	0
1	86877	28.21	0
1	87198	28.31	0
1	87519	28.41	0
1	87840	28.51	0
1	88161	28.61	0
1	88482	28.71	0
1	88803	28.81	0
1	89124	28.91	0
1	89451	29.01	0
1	89772	29.11	0
1	90093	29.21	0
1	90487	29.31	0
1	90807	29.41	0
1	91127	29.51	0
1	91447	29.61	0
1	91767	29.71	0
1	92087	29.81	0
1	92407	29.91	0
1	92733	30.01	0
1	93053	30.11	0
1	93373	30.21	0
1	93693	30.31	0
1	94013	30.41	0
1	94333	30.51	0
1	94653	30.61	0
1	94973	30.71	0
1	95293	30.81	0
1	95613	30.91	0
1	95939	31.01	0
1	96259	31.11	0
1	96579	31.21	0
1	96899	31.31	0
1	97219	31.41	0
1	97539	31.51	0
1	97859	31.61	0
1	98179	31.71	0
1	98499	31.81	0
1	98819	31.91	0
1	99145	32.01	0
1	99465	32.11	0
1	99785	32.21	0
1	100105	32.31	0
1	100425	32.41	0
1	100745	32.51	0
1	101065	32.61	0
1	101385	32.71	0
1	101705	32.81	0
1	102025	32.91	0
1	102351	33.01	0
1	102671	33.11	0
1	102991	33.21	0
1	103311	33.31	0
1	103631	33.41	0
1	104024	33.51	0
1	104343	33.61	0
1	104662	33.71	0
1	104981	33.81	0
1	105300	33.91	0
1	105625	34.01	0
1	105944	34.11	0
1	106263	34.21	0
1	106582	34.31	0
1	106901	34.41	0
1	107220	34.51	0
1	107539	34.61	0
1	107858	34.71	0
1	108177	34.81	0
1	108496	34.91	0
1	108821	35.01	0
1	109140	35.11	0
1	109459	35.21	0
1	109778	35.31	0
1	110097	35.41	0
1	110416	35.51	0
1	110735	35.61	0
1	111054	35.71	0
1	111373	35.81	0
1	111692	35.91	0
1	112017	36.01	0
1	112336	36.11	0
1	112655	36.21	0
1	112974	36.31	0
1	113293	36.41	0
1	113612	36.51	0
1	113931	36.61	0
1	114250	36.71	0
1	114569	36.81	0
1	114888	36.91	0
1	115213	37.01	0
1	115532	37.11	0
1	115851	37.21	0
1	116170	37.31	0
1	116489	37.41	0
1	116881	37.51	0
1	117199	37.61	0
1	117517	37.71	0
1	117835	37.81	0
1	118153	37.91	0
1	118477	38.01	0
1	118795	38.11	0
1	119113	38.21	0
1	119431	38.31	0
1	119749	38.41	0
1	120067	38.51	0
1	120385	38.61	0
1	120703	38.71	0
1	121021	38.81	0
1	121339	38.91	0
1	121663	39.01	0
1	121981	39.11	0
1	122299	39.21	0
1	122617	39.31	0
1	122935	39.41	0
1	123253	39.51	0
1	123571	39.61	0
1	123889	39.71	0
1	124207	39.81	0
1	124525	39.91	0
1	124849	40.01	0
1	125167	40.11	0
1	125485	40.21	0
1	125803	40.31	0
1	126121	40.41	0
1	126439	40.51	0
1	126757	40.61	0
1	127075	40.71	0
1	127393	40.81	0
1	127711	40.91	0
1	128035	41.01	0
1	128353	41.11	0
1	128671	41.21	0
1	129062	41.31	0
1	129379	41.41	0
1	129696	41.51	0
1	130013	41.61	0
1	130330	41.71	0
1	130647	41.81	0
1	130964	41.91	0
1	131287	42.01	0
1	131604	42.11	0
1	131921	42.21	0
1	132238	42.31	0
1	132555	42.41	0
1	132872	42.51	0
1	133189	42.61	0
1	133506	42.71	0
1	133823	42.81	0
1	134140	42.91	0
1	134463	43.01	0
1	134780	43.11	0
1	135097	43.21	0
1	135414	43.31	0
1	135731	43.41	0
1	136048	43.51	0
1	136365	43.61	0
1	136682	43.71	0
1	136999	43.81	0
1	137316	43.91	0
1	137639	44.01	0
1	137956	44.11	0
1	138273	44.21	0
1	138590	44.31	0
1	138907	44.41	0
1	139224	44.51	0
1	139541	44.61	0
1	139858	44.71	0
1	140175	44.81	0
1	140492	44.91	0
1	141253	45.01	0
1	141569	45.11	0
1	141885	45.21	0
1	142201	45.31	0
1	142517	45.41	0
1	142833	45.51	0
1	143149	45.61	0
1	143465	45.71	0
1	143781	45.81	0
1	144097	45.91	0
1	144419	46.01	0
1	144735	46.11	0
1	145051	46.21	0
1	145367	46.31	0
1	145683	46.41	0
1	145999	46.51	0
1	146315	46.61	0
1	146631	46.71	0
1	146947	46.81	0
1	147263	46.91	0
1	147585	47.01	0
1	147901	47.11	0
1	148217	47.21	0
1	148533	47.31	0
1	148849	47.41	0
1	149165	47.51	0
1	149481	47.61	0
1	149797	47.71	0
1	150113	47.81	0
1	150429	47.91	0
1	150751	48.01	0
1	151067	48.11	0
1	151383	48.21	0
1	151699	48.31	0
1	152015	48.41	0
1	152331	48.51	0
1	152647	48.61	0
1	152963	48.71	0
1	153279	48.81	0
1	153595	48.91	0
1	153917	49.01	0
1	154233	49.11	0
1	154549	49.21	0
1	154865	49.31	0
1	155181	49.41	0
1	155497	49.51	0
1	155813	49.61	0
1	156129	49.71	0
1	156445	49.81	0
1	156761	49.91	0
1	157083	50.01	0
1	157399	50.11	0
1	157715	50.21	0
1	158031	50.31	0
1	158347	50.41	0
1	158663	50.51	0
1	158979	50.61	0
1	159295	50.71	0
1	159611	50.81	0
1	159927	50.91	0
1	160249	51.01	0
1	160565	51.11	0
1	160881	51.21	0
1	161197	51.31	0
1	161513	51.41	0
1	161829	51.51	0
1	162145	51.61	0
1	162461	51.71	0
1	162777	51.81	0
1	163093	51.91	0
1	163415	52.01	0
1	163731	52.11	0
1	164047	52.21	0
1	164363	52.31	0
1	164679	52.41	0
1	164995	52.51	0
1	165311	52.61	0
1	165627	52.71	0
1	165943	52.81	0
1	166259	52.91	0
1	166581	53.01	0
1	166897	53.11	0
1	167213	53.21	0
1	167529	53.31	0
1	167845	53.41	0
1	168161	53.51	0
1	168477	53.61	0
1	168793	53.71	0
1	169109	53.81	0
1	169425	53.91	0
1	169747	54.01	0
1	170063	54.11	0
1	170379	54.21	0
1	170695	54.31	0
1	171011	54.41	0
1	171327	54.51	0
1	171643	54.61	0
1	171959	54.71	0
1	172275	54.81	0
1	172591	54.91	0
1	172913	55.01	0
1	173229	55.11	0
1	173545	55.21	0
1	173861	55.31	0
1	174177	55.41	0
1	174493	55.51	0
1	174809	55.61	0
1	175125	55.71	0
1	175441	55.81	0
1	175757	55.91	0
1	176079	56.01	0
1	176395	56.11	0
1	176711	56.21	0
1	177027	56.31	0
1	177343	56.41	0
1	177659	56.51	0
1	177975	56.61	0
1	178291	56.71	0
1	178607	56.81	0
1	178923	56.91	0
1	179245	57.01	0
1	179561	57.11	0
1	179877	57.21	0
1	180193	57.31	0
1	180509	57.41	0
1	180825	57.51	0
1	181141	57.61	0
1	181457	57.71	0
1	181773	57.81	0
1	182089	57.91	0
1	182411	58.01	0
1	182727	58.11	0
1	183043	58.21	0
1	183359	58.31	0
1	183675	58.41	0
1	183991	58.51	0
1	184307	58.61	0
1	184623	58.71	0
1	184939	58.81	0
1	185255	58.91	0
1	185577	59.01	0
1	185893	59.11	0
1	186209	59.21	0
1	186525	59.31	0
1	186841	59.41	0
1	187157	59.51	0
1	187473	59.61	0
1	187789	59.71	0
1	188105	59.81	0
1	188421	59.91	0
1	188743	60.01	0
1	189059	60.11	0
1	189375	60.21	0
1	189691	60.31	0
1	190007	60.41	0
1	190323	60.51	0
1	190639	60.61	0
1	190955	60.71	0
1	191271	60.81	0
1	191587	60.91	0
1	191909	61.01	0
1	192225	61.11	0
1	192541	61.21	0
1	192857	61.31	0
1	193173	61.41	0
1	193489	61.51	0
1	193805	61.61	0
1	194121	61.71	0
1	194437	61.81	0
1	194753	61.91	0
1	195075	62.01	0
1	195391	62.11	0
1	195707	62.21	0
1	196023	62.31	0
1	196339	62.41	0
1	196655	62.51	0
1	196971	62.61	0
1	197287	62.71	0
1	197603	62.81	0
1	197919	62.91	0
1	198241	63.01	0
1	198557	63.11	0
1	198873	63.21	0
1	199189	63.31	0
1	199505	63.41	0
1	199821	63.51	0
1	200137	63.61	0
1	200453	63.71	0
1	200769	63.81	0
1	201085	63.91	0
1	201407	64.01	0
1	201723	64.11	0
1	202039	64.21	0
1	202355	64.31	0
1	202671	64.41	0
1	202987	64.51	0
1	203303	64.61	0
1	203619	64.71	0
1	203935	64.81	0
1	204251	64.91	0
1	204573	65.01	0
1	204889	65.11	0
1	205205	65.21	0
1	205521	65.31	0
1	205837	65.41	0
1	206153	65.51	0
1	206469	65.61	0
1	206785	65.71	0
1	207101	65.81	0
1	207417	65.91	0
1	207739	66.01	0
1	208055	66.11	0
1	208371	66.21	0
1	208687	66.31	0
1	209003	66.41	0
1	209319	66.51	0
1	209635	66.61	0
1	209951	66.71	0
1	210267	66.81	0
1	210583	66.91	0
1	210905	67.01	0
1	211221	67.11	0
1	211537	67.21	0
1	211853	67.31	0
1	212169	67.41	0
1	212485	67.51	0
1	212801	67.61	0
1	213117	67.71	0
1	213433	67.81	0
1	213749	67.91	0
1	214071	68.01	0
1	214387	68.11	0
1	214703	68.21	0
1	215019	68.31	0
1	215335	68.41	0
1	215651	68.51	0
1	215967	68.61	0
1	216283	68.71	0
1	216599	68.81	0
1	216915	68.91	0
1	217237	69.01	0
1	217553	69.11	0
1	217869	69.21	0
1	218185	69.31	0
1	218501	69.41	0
1	218817	69.51	0
1	219133	69.61	0
1	219449	69.71	0
1	219765	69.81	0
1	220081	69.91	0
1	220403	70.01	0
1	220719	70.11	0
1	221035	70.21	0
1	221351	70.31	0
1	221667	70.41	0
1	221983	70.51	0
1	222299	70.61	0
1	222615	70.71	0
1	222931	70.81	0
1	223247	70.91	0
1	223569	71.01	0
1	223885	71.11	0
1	224201	71.21	0
1	224517	71.31	0
1	224833	71.41	0
1	225149	71.51	0
1	225465	71.61	0
1	225781	71.71	0
1	226097	71.81	0
1	226413	71.91	0
1	226735	72.01	0
1	227051	72.11	0
1	227367	72.21	0
1	227683	72.31	0
1	227999	72.41	0
1	228315	72.51	0
1	228631	72.61	0
1	228947	72.71	0
1	229263	72.81	0
1	229579	72.91	0
1	229901	73.01	0
1	230217	73.11	0
1	230533	73.21	0
1	230849	73.31	0
1	231165	73.41	0
1	231481	73.51	0
1	231797	73.61	0
1	232113	73.71	0
1	232429	73.81	0
1	232745	73.91	0
1	233067	74.01	0
1	233383	74.11	0
1	233699	74.21	0
1	234015	74.31	0
1	234331	74.41	0
1	234647	74.51	0
1	234963	74.61	0
1	235279	74.71	0
1	235595	74.81	0
1	235911	74.91	0
1	236233	75.01	0
1	236549	75.11	0
1	236865	75.21	0
1	237181	75.31	0
1	237497	75.41	0
1	237813	75.51	0
1	238129	75.61	0
1	238445	75.71	0
1	238761	75.81	0
1	239077	75.91	0
1	239399	76.01	0
1	239715	76.11	0
1	240031	76.21	0
1	240347	76.31	0
1	240663	76.41	0
1	240979	76.51	0
1	241295	76.61	0
1	241611	76.71	0
1	241927	76.81	0
1	242243	76.91	0
1	242565	77.01	0
1	242881	77.11	0
1	243197	77.21	0
1	243513	77.31	0
1	243829	77.41	0
1	244145	77.51	0
1	244461	77.61	0
1	244777	77.71	0
1	245093	77.81	0
1	245409	77.91	0
1	245731	78.01	0
1	246047	78.11	0
1	246363	78.21	0
1	246679	78.31	0
1	246995	78.41	0
1	247311	78.51	0
1	247627	78.61	0
1	247943	78.71	0
1	248259	78.81	0
1	248575	78.91	0
1	248897	79.01	0
1	249213	79.11	0
1	249529	79.21	0
1	249845	79.31	0
1	250161	79.41	0
1	250477	79.51	0
1	250793	79.61	0
1	251109	79.71	0
1	251425	79.81	0
1	251741	79.91	0
1	252063	80.01	0
1	252379	80.11	0
1	252695	80.21	0
1	253011	80.31	0
1	253327	80.41	0
1	253643	80.51	0
1	253959	80.61	0
1	254275	80.71	0
1	254591	80.81	0
1	254907	80.91	0
1	255229	81.01	0
1	255545	81.11	0
1	255861	81.21	0
1	256177	81.31	0
1	256493	81.41	0
1	256809	81.51	0
1	257125	81.61	0
1	257441	81.71	0
1	257757	81.81	0
1	258073	81.91	0
1	258395	82.01	0
1	258711	82.11	0
1	259027	82.21	0
1	259343	82.31	0
1	259659	82.41	0
1	259975	82.51	0
1	260291	82.61	0
1	260607	82.71	0
1	260923	82.81	0
1	261239	82.91	0
1	261561	83.01	0
1	261877	83.11	0
1	262193	83.21	0
1	262509	83.31	0
1	262825	83.41	0
1	263141	83.51	0
1	263457	83.61	0
1	263773	83.71	0
1	264089	83.81	0
1	264405	83.91	0
1	264727	84.01	0
1	265043	84.11	0
1	265359	84.21	0
1	265675	84.31	0
1	265991	84.41	0
1	266307	84.51	0
1	266623	84.61	0
1	266939	84.71	0
1	267255	84.81	0
1	267571	84.91	0
1	267893	85.01	0
1	268209	85.11	0
1	268525	85.21	0
1	268841	85.31	0
1	269157	85.41	0
1	269473	85.51	0
1	269789	85.61	0
1	270105	85.71	0
1	270421	85.81	0
1	270737	85.91	0
1	271059	86.01	0
1	271375	86.11	0
1	271691	86.21	0
1	272007	86.31	0
1	272323	86.41	0
1	272639	86.51	0
1	272955	86.61	0
1	273271	86.71	0
1	273587	86.81	0
1	273903	86.91	0
1	274225	87.01	0
1	274541	87.11	0
1	274857	87.21	0
1	275173	87.31	0
1	275489	87.41	0
1	275805	87.51	0
1	276121	87.61	0
1	276437	87.71	0
1	276753	87.81	0
1	277069	87.91	0
1	277391	88.01	0
1	277707	88.11	0
1	278023	88.21	0
1	278339	88.31	0
1	278655	88.41	0
1	278971	88.51	0
1	279287	88.61	0
1	279603	88.71	0
1	279919	88.81	0
1	280235	88.91	0
1	280557	89.01	0
1	280873	89.11	0
1	281189	89.21	0
1	281505	89.31	0
1	281821	89.41	0
1	282137	89.51	0
1	282453	89.61	0
1	282769	89.71	0
1	283085	89.81	0
1	283401	89.91	0
1	283723	90.01	0
1	284039	90.11	0
1	284355	90.21	0
1	284671	90.31	0
1	284987	90.41	0
1	285303	90.51	0
1	285619	90.61	0
1	285935	90.71	0
1	286251	90.81	0
1	286567	90.91	0
1	286889	91.01	0
1	287205	91.11	0
1	287521	91.21	0
1	287837	91.31	0
1	288153	91.41	0
1	288469	91.51	0
1	288785	91.61	0
1	289101	91.71	0
1	289417	91.81	0
1	289733	91.91	0
1	290055	92.01	0
1	290371	92.11	0
1	290687	92.21	0
1	291003	92.31	0
1	291319	92.41	0
1	291635	92.51	0
1	291951	92.61	0
1	292267	92.71	0
1	292583	92.81	0
1	292899	92.91	0
1	293221	93.01	0
1	293537	93.11	0
1	293853	93.21	0
1	294169	93.31	0
1	294485	93.41	0
1	294801	93.51	0
1	295117	93.61	0
1	295433	93.71	0
1	295749	93.81	0
1	296065	93.91	0
1	296387	94.01	0
1	296703	94.11	0
1	297019	94.21	0
1	297335	94.31	0
1	297651	94.41	0
1	297967	94.51	0
1	298283	94.61	0
1	298599	94.71	0
1	298915	94.81	0
1	299231	94.91	0
1	299553	95.01	0.889092
1	299869	95.11	0.893525
1	300185	95.21	0.90281
1	300501	95.31	0.915784
1	300817	95.41	0.931432
1	301133	95.51	0.948874
1	301449	95.61	0.967354
1	301765	95.71	0.986234
1	302081	95.81	1.00498
1	302397	95.91	1.02315
1	302719	96.01	1.0404
1	303035	96.11	1.05644
1	303351	96.21	1.07107
1	303667	96.31	1.08414
1	303983	96.41	1.09555
1	304299	96.51	1.10524
1	304615	96.61	1.11319
1	304931	96.71	1.11943
1	305247	96.81	1.12398
1	305563	96.91	1.1269
1	305885	97.01	1.12827
1	306201	97.11	1.12818
1	306517	97.21	1.12672
1	306833	97.31	1.124
1	307149	97.41	1.12011
1	307465	97.51	1.11517
1	307781	97.61	1.10927
1	308097	97.71	1.10254
1	308413	97.81	1.09505
1	308729	97.91	1.08691
1	309051	98.01	1.07821
1	309367	98.11	1.06903
1	309683	98.21	1.05946
1	309999	98.31	1.04956
1	310315	98.41	1.0394
1	310631	98.51	1.02904
1	310947	98.61	1.01854
1	311263	98.71	1.00795
1	311579	98.81	0.997299
1	311895	98.91	0.986656
1	312217	99.01	0.976172
1	312533	99.11	0.966005
1	312849	99.21	0.956283
1	313165	99.31	0.947098
1	313481	99.41	0.93852
1	313797	99.51	0.930592
1	314113	99.61	0.923341
1	314429	99.71	0.916775
1	314745	99.81	0.910889
1	315061	99.91	0.905666
2	113	1.11	0
2	429	1.21	0
2	745	1.31	0
2	1061	1.41	0
2	1377	1.51	0
2	1693	1.61	0
2	2009	1.71	0
2	2325	1.81	0
2	2641	1.91	0
2	2963	2.01	0
2	3279	2.11	0
2	3595	2.21	0
2	3911	2.31	0
2	4227	2.41	0
2	4543	2.51	0
2	4859	2.61	0
2	5175	2.71	0
2	5491	2.81	0
2	5807	2.91	0
2	6129	3.01	0
2	6445	3.11	0
2	6761	3.21	0
2	7077	3.31	0
2	7393	3.41	0
2	7709	3.51	0
2	8025	3.61	0
2	8341	3.71	0
2	8657	3.81	0
2	8973	3.91	0
2	9295	4.01	0
2	9611	4.11	0
2	9927	4.21	0
2	10243	4.31	0
2	10559	4.41	0
2	10875	4.51	0
2	11191	4.61	0
2	11507	4.71	0
2	11823	4.81	0
2	12139	4.91	0
2	12461	5.01	0
2	12777	5.11	0
2	13093	5.21	0
2	13409	5.31	0
2	13725	5.41	0
2	14041	5.51	0
2	14357	5.61	0
2	14673	5.71	0
2	14989	5.81	0
2	15305	5.91	0
2	15627	6.01	0
2	15943	6.11	0
2	16259	6.21	0
2	16575	6.31	0
2	16891	6.41	0
2	17207	6.51	0
2	17523	6.61	0
2	17839	6.71	0
2	18155	6.81	0
2	18471	6.91	0
2	18793	7.01	0
2	19109	7.11	0
2	19425	7.21	0
2	19741	7.31	0
2	20057	7.41	0
2	20373	7.51	0
2	20689	7.61	0
2	21005	7.71	0
2	21321	7.81	0
2	21637	7.91	0
2	21959	8.01	0
2	22275	8.11	0
2	22591	8.21	0
2	22907	8.31	0
2	23223	8.41	0
2	23539	8.51	0
2	23855	8.61	0
2	24171	8.71	0
2	24487	8.81	0
2	24803	8.91	0
2	25125	9.01	0
2	25441	9.11	0
2	25757	9.21	0
2	26073	9.31	0
2	26389	9.41	0
2	26705	9.51	0
2	27021	9.61	0
2	27337	9.71	0
2	27653	9.81	0
2	27969	9.91	0
2	28347	10.01	0
2	28668	10.11	0
2	28989	10.21	0
2	29310	10.31	0
2	29631	10.41	0
2	29952	10.51	0
2	30273	10.61	0
2	30594	10.71	0
2	30915	10.81	0
2	31236	10.91	0
2	31563	11.01	0
2	31884	11.11	0
2	32205	11.21	0
2	32526	11.31	0
2	32847	11.41	0
2	33168	11.51	0
2	33489	11.61	0
2	33810	11.71	0
2	34131	11.81	0
2	34452	11.91	0
2	34779	12.01	0
2	35100	12.11	0
2	35421	12.21	0
2	35742	12.31	0
2	36063	12.41	0
2	36384	12.51	0
2	36705	12.61	0
2	37026	12.71	0
2	37347	12.81	0
2	37668	12.91	0
2	37995	13.01	0
2	38316	13.11	0
2	38637	13.21	0
2	38958	13.31	0
2	39279	13.41	0
2	39600	13.51	0
2	39921	13.61	0
2	40242	13.71	0
2	40563	13.81	0
2	40884	13.91	0
2	41211	14.01	0
2	41532	14.11	0
2	41853	14.21	0
2	42174	14.31	0
2	42495	14.41	0
2	42816	14.51	0
2	43137	14.61	0
2	43458	14.71	0
2	43779	14.81	0
2	44100	14.91	0
2	44427	15.01	0
2	44748	15.11	0
2	45069	15.21	0
2	45390	15.31	0
2	45711	15.41	0
2	46032	15.51	0
2	46353	15.61	0
2	46674	15.71	0
2	46995	15.81	0
2	47316	15.91	0
2	47643	16.01	0
2	47964	16.11	0
2	48285	16.21	0
2	48606	16.31	0
2	48927	16.41	0
2	49248	16.51	0
2	49569	16.61	0
2	49890	16.71	0
2	50211	16.81	0
2	50532	16.91	0
2	50859	17.01	0
2	51180	17.11	0
2	51501	17.21	0
2	51822	17.31	0
2	52143	17.41	0
2	52464	17.51	0
2	52785	17.61	0
2	53106	17.71	0
2	53427	17.81	0
2	53748	17.91	0
2	54075	18.01	0
2	54396	18.11	0
2	54717	18.21	0
2	55038	18.31	0
2	55359	18.41	0
2	55680	18.51	0
2	56001	18.61	0
2	56322	18.71	0
2	56643	18.81	0
2	56964	18.91	0
2	57291	19.01	0
2	57612	19.11	0
2	57933	19.21	0
2	58254	19.31	0
2	58575	19.41	0
2	58896	19.51	0
2	59217	19.61	0
2	59538	19.71	0
2	59859	19.81	0
2	60180	19.91	0
2	60507	20.01	0
2	60828	20.11	0
2	61149	20.21	0
2	61470	20.31	0
2	61791	20.41	0
2	62112	20.51	0
2	62433	20.61	0
2	62754	20.71	0
2	63075	20.81	0
2	63396	20.91	0
2	63723	21.01	0
2	64044	21.11	0
2	64365	21.21	0
2	64686	21.31	0
2	65007	21.41	0
2	65328	21.51	0
2	65649	21.61	0
2	65970	21.71	0
2	66291	21.81	0
2	66612	21.91	0
2	66939	22.01	0
2	67260	22.11	0
2	67581	22.21	0
2	67902	22.31	0
2	68223	22.41	0
2	68544	22.51	0
2	68865	22.61	0
2	69186	22.71	0
2	69507	22.81	0
2	69828	22.91	0
2	70155	23.01	0
2	70476	23.11	0
2	70797	23.21	0
2	71118	23.31	0
2	71439	23.41	0
2	71760	23.51	0
2	72081	23.61	0
2	72402	23.71	0
2	72723	23.81	0
2	73044	23.91	0
2	73371	24.01	0
2	73692	24.11	0
2	74013	24.21	0
2	74334	24.31	0
2	74655	24.41	0
2	74976	24.51	0
2	75297	24.61	0
2	75618	24.71	0
2	75939	24.81	0
2	76260	24.91	0
2	76587	25.01	0
2	76908	25.11	0
2	77229	25.21	0
2	77550	25.31	0
2	77871	25.41	0
2	78192	25.51	0
2	78513	25.61	0
2	78834	25.71	0
2	79155	25.81	0
2	79476	25.91	0
2	79803	26.01	0
2	80124	26.11	0
2	80445	26.21	0
2	80766	26.31	0
2	81087	26.41	0
2	81408	26.51	0
2	81729	26.61	0
2	82050	26.71	0
2	82371	26.81	0
2	82692	26.91	0
2	83019	27.01	0
2	83340	27.11	0
2	83661	27.21	0
2	83982	27.31	0
2	84303	27.41	0
2	84624	27.51	0
2	84945	27.61	0
2	85266	27.71	0
2	85587	27.81	0
2	85908	27.91	0
2	86235	28.01	0
2	86556	28.11	0
2	86877	28.21	0
2	87198	28.31	0
2	87519	28.41	0
2	87840	28.51	0
2	88161	28.61	0
2	88482	28.71	0
2	88803	28.81	0
2	89124	28.91	0
2	89451	29.01	0
2	89772	29.11	0
2	90093	29.21	0
2	90487	29.31	0
2	90807	29.41	0
2	91127	29.51	0
2	91447	29.61	0
2	91767	29.71	0
2	92087	29.81	0
2	92407	29.91	0
2	92733	30.01	0
2	93053	30.11	0
2	93373	30.21	0
2	93693	30.31	0
2	94013	30.41	0
2	94333	30.51	0
2	94653	30.61	0
2	94973	30.71	0
2	95293	30.81	0
2	95613	30.91	0
2	95939	31.01	0
2	96259	31.11	0
2	96579	31.21	0
2	96899	31.31	0
2	97219	31.41	0
2	97539	31.51	0
2	97859	31.61	0
2	98179	31.71	0
2	98499	31.81	0
2	98819	31.91	0
2	99145	32.01	0
2	99465	32.11	0
2	99785	32.21	0
2	100105	32.31	0
2	100425	32.41	0
2	100745	32.51	0
2	101065	32.61	0
2	101385	32.71	0
2	101705	32.81	0
2	102025	32.91	0
2	102351	33.01	0
2	102671	33.11	0
2	102991	33.21	0
2	103311	33.31	0
2	103631	33.41	0
2	104024	33.51	0
2	104343	33.61	0
2	104662	33.71	0
2	104981	33.81	0
2	105300	33.91	0
2	105625	34.01	0
2	105944	34.11	0
2	106263	34.21	0
2	106582	34.31	0
2	106901	34.41	0
2	107220	34.51	0
2	107539	34.61	0
2	107858	34.71	0
2	108177	34.81	0
2	108496	34.91	0
2	108821	35.01	0
2	109140	35.11	0
2	109459	35.21	0
2	109778	35.31	0
2	110097	35.41	0
2	110416	35.51	0
2	110735	35.61	0
2	111054	35.71	0
2	111373	35.81	0
2	111692	35.91	0
2	112017	36.01	0
2	112336	36.11	0
2	112655	36.21	0
2	112974	36.31	0
2	113293	36.41	0
2	113612	36.51	0
2	113931	36.61	0
2	114250	36.71	0
2	114569	36.81	0
2	114888	36.91	0
2	115213	37.01	0
2	115532	37.11	0
2	115851	37.21	0
2	116170	37.31	0
2	116489	37.41	0
2	116881	37.51	0
2	117199	37.61	0
2	117517	37.71	0
2	117835	37.81	0
2	118153	37.91	0
2	118477	38.01	0
2	118795	38.11	0
2	119113	38.21	0
2	119431	38.31	0
2	119749	38.41	0
2	120067	38.51	0
2	120385	38.61	0
2	120703	38.71	0
2	121021	38.81	0
2	121339	38.91	0
2	121663	39.01	0
2	121981	39.11	0
2	122299	39.21	0
2	122617	39.31	0
2	122935	39.41	0
2	123253	39.51	0
2	123571	39.61	0
2	123889	39.71	0
2	124207	39.81	0
2	124525	39.91	0
2	124849	40.01	0
2	125167	40.11	0
2	125485	40.21	0
2	125803	40.31	0
2	126121	40.41	0
2	126439	40.51	0
2	126757	40.61	0
2	127075	40.71	0
2	127393	40.81	0
2	127711	40.91	0
2	128035	41.01	0
2	128353	41.11	0
2	128671	41.21	0
2	129062	41.31	0
2	129379	41.41	0
2	129696	41.51	0
2	130013	41.61	0
2	130330	41.71	0
2	130647	41.81	0
2	130964	41.91	0
2	131287	42.01	0
2	131604	42.11	0
2	131921	42.21	0
2	132238	42.31	0
2	132555	42.41	0
2	132872	42.51	0
2	133189	42.61	0
2	133506	42.71	0
2	133823	42.81	0
2	134140	42.91	0
2	134463	43.01	0
2	134780	43.11	0
2	135097	43.21	0
2	135414	43.31	0
2	135731	43.41	0
2	136048	43.51	0
2	136365	43.61	0
2	136682	43.71	0
2	136999	43.81	0
2	137316	43.91	0
2	137639	44.01	0
2	137956	44.11	0
2	138273	44.21	0
2	138590	44.31	0
2	138907	44.41	0
2	139224	44.51	0
2	139541	44.61	0
2	139858	44.71	0
2	140175	44.81	0
2	140492	44.91	0
2	141253	45.01	0
2	141569	45.11	0
2	141885	45.21	0
2	142201	45.31	0
2	142517	45.41	0
2	142833	45.51	0
2	143149	45.61	0
2	143465	45.71	0
2	143781	45.81	0
2	144097	45.91	0
2	144419	46.01	0
2	144735	46.11	0
2	145051	46.21	0
2	145367	46.31	0
2	145683	46.41	0
2	145999	46.51	0
2	146315	46.61	0
2	146631	46.71	0
2	146947	46.81	0
2	147263	46.91	0
2	147585	47.01	0
2	147901	47.11	0
2	148217	47.21	0
2	148533	47.31	0
2	148849	47.41	0
2	149165	47.51	0
2	149481	47.61	0
2	149797	47.71	0
2	150113	47.81	0
2	150429	47.91	0
2	150751	48.01	0
2	151067	48.11	0
2	151383	48.21	0
2	151699	48.31	0
2	152015	48.41	0
2	152331	48.51	0
2	152647	48.61	0
2	152963	48.71	0
2	153279	48.81	0
2	153595	48.91	0
2	153917	49.01	0
2	154233	49.11	0
2	154549	49.21	0
2	154865	49.31	0
2	155181	49.41	0
2	155497	49.51	0
2	155813	49.61	0
2	156129	49.71	0
2	156445	49.81	0
2	156761	49.91	0
2	157083	50.01	0
2	157399	50.11	0
2	157715	50.21	0
2	158031	50.31	0
2	158347	50.41	0
2	158663	50.51	0
2	158979	50.61	0
2	159295	50.71	0
2	159611	50.81	0
2	159927	50.91	0
2	160249	51.01	0
2	160565	51.11	0
2	160881	51.21	0
2	161197	51.31	0
2	161513	51.41	0
2	161829	51.51	0
2	162145	51.61	0
2	162461	51.71	0
2	162777	51.81	0
2	163093	51.91	0
2	163415	52.01	0
2	163731	52.11	0
2	164047	52.21	0
2	164363	52.31	0
2	164679	52.41	0
2	164995	52.51	0
2	165311	52.61	0
2	165627	52.71	0
2	165943	52.81	0
2	166259	52.91	0
2	166581	53.01	0
2	166897	53.11	0
2	167213	53.21	0
2	167529	53.31	0
2	167845	53.41	0
2	168161	53.51	0
2	168477	53.61	0
2	168793	53.71	0
2	169109	53.81	0
2	169425	53.91	0
2	169747	54.01	0
2	170063	54.11	0
2	170379	54.21	0
2	170695	54.31	0
2	171011	54.41	0
2	171327	54.51	0
2	171643	54.61	0
2	171959	54.71	0
2	172275	54.81	0
2	172591	54.91	0
2	172913	55.01	0
2	173229	55.11	0
2	173545	55.21	0
2	173861	55.31	0
2	174177	55.41	0
2	174493	55.51	0
2	174809	55.61	0
2	175125	55.71	0
2	175441	55.81	0
2	175757	55.91	0
2	176079	56.01	0
2	176395	56.11	0
2	176711	56.21	0
2	177027	56.31	0
2	177343	56.41	0
2	177659	56.51	0
2	177975	56.61	0
2	178291	56.71	0
2	178607	56.81	0
2	178923	56.91	0
2	179245	57.01	0
2	179561	57.11	0
2	179877	57.21	0
2	180193	57.31	0
2	180509	57.41	0
2	180825	57.51	0
2	181141	57.61	0
2	181457	57.71	0
2	181773	57.81	0
2	182089	57.91	0
2	182411	58.01	0
2	182727	58.11	0
2	183043	58.21	0
2	183359	58.31	0
2	183675	58.41	0
2	183991	58.51	0
2	184307	58.61	0
2	184623	58.71	0
2	184939	58.81	0
2	185255	58.91	0
2	185577	59.01	0
2	185893	59.11	0
2	186209	59.21	0
2	186525	59.31	0
2	186841	59.41	0
2	187157	59.51	0
2	187473	59.61	0
2	187789	59.71	0
2	188105	59.81	0
2	188421	59.91	0
2	188743	60.01	0
2	189059	60.11	0
2	189375	60.21	0
2	189691	60.31	0
2	190007	60.41	0
2	190323	60.51	0
2	190639	60.61	0
2	190955	60.71	0
2	191271	60.81	0
2	191587	60.91	0
2	191909	61.01	0
2	192225	61.11	0
2	192541	61.21	0
2	192857	61.31	0
2	193173	61.41	0
2	193489	61.51	0
2	193805	61.61	0
2	194121	61.71	0
2	194437	61.81	0
2	194753	61.91	0
2	195075	62.01	0
2	195391	62.11	0
2	195707	62.21	0
2	196023	62.31	0
2	196339	62.41	0
2	196655	62.51	0
2	196971	62.61	0
2	197287	62.71	0
2	197603	62.81	0
2	197919	62.91	0
2	198241	63.01	0
2	198557	63.11	0
2	198873	63.21	0
2	199189	63.31	0
2	199505	63.41	0
2	199821	63.51	0
2	200137	63.61	0
2	200453	63.71	0
2	200769	63.81	0
2	201085	63.91	0
2	201407	64.01	0
2	201723	64.11	0
2	202039	64.21	0
2	202355	64.31	0
2	202671	64.41	0
2	202987	64.51	0
2	203303	64.61	0
2	203619	64.71	0
2	203935	64.81	0
2	204251	64.91	0
2	204573	65.01	0
2	204889	65.11	0
2	205205	65.21	0
2	205521	65.31	0
2	205837	65.41	0
2	206153	65.51	0
2	206469	65.61	0
2	206785	65.71	0
2	207101	65.81	0
2	207417	65.91	0
2	207739	66.01	0
2	208055	66.11	0
2	208371	66.21	0
2	208687	66.31	0
2	209003	66.41	0
2	209319	66.51	0
2	209635	66.61	0
2	209951	66.71	0
2	210267	66.81	0
2	210583	66.91	0
2	210905	67.01	0
2	211221	67.11	0
2	211537	67.21	0
2	211853	67.31	0
2	212169	67.41	0
2	212485	67.51	0
2	212801	67.61	0
2	213117	67.71	0
2	213433	67.81	0
2	213749	67.91	0
2	214071	68.01	0
2	214387	68.11	0
2	214703	68.21	0
2	215019	68.31	0
2	215335	68.41	0
2	215651	68.51	0
2	215967	68.61	0
2	216283	68.71	0
2	216599	68.81	0
2	216915	68.91	0
2	217237	69.01	0
2	217553	69.11	0
2	217869	69.21	0
2	218185	69.31	0
2	218501	69.41	0
2	218817	69.51	0
2	219133	69.61	0
2	219449	69.71	0
2	219765	69.81	0
2	220081	69.91	0
2	220403	70.01	0
2	220719	70.11	0
2	221035	70.21	0
2	221351	70.31	0
2	221667	70.41	0
2	221983	70.51	0
2	222299	70.61	0
2	222615	70.71	0
2	222931	70.81	0
2	223247	70.91	0
2	223569	71.01	0
2	223885	71.11	0
2	224201	71.21	0
2	224517	71.31	0
2	224833	71.41	0
2	225149	71.51	0
2	225465	71.61	0
2	225781	71.71	0
2	226097	71.81	0
2	226413	71.91	0
2	226735	72.01	0
2	227051	72.11	0
2	227367	72.21	0
2	227683	72.31	0
2	227999	72.41	0
2	228315	72.51	0
2	228631	72.61	0
2	228947	72.71	0
2	229263	72.81	0
2	229579	72.91	0
2	229901	73.01	0
2	230217	73.11	0
2	230533	73.21	0
2	230849	73.31	0
2	231165	73.41	0
2	231481	73.51	0
2	231797	73.61	0
2	232113	73.71	0
2	232429	73.81	0
2	232745	73.91	0
2	233067	74.01	0
2	233383	74.11	0
2	233699	74.21	0
2	234015	74.31	0
2	234331	74.41	0
2	234647	74.51	0
2	234963	74.61	0
2	235279	74.71	0
2	235595	74.81	0
2	235911	74.91	0
2	236233	75.01	0
2	236549	75.11	0
2	236865	75.21	0
2	237181	75.31	0
2	237497	75.41	0
2	237813	75.51	0
2	238129	75.61	0
2	238445	75.71	0
2	238761	75.81	0
2	239077	75.91	0
2	239399	76.01	0
2	239715	76.11	0
2	240031	76.21	0
2	240347	76.31	0
2	240663	76.41	0
2	240979	76.51	0
2	241295	76.61	0
2	241611	76.71	0
2	241927	76.81	0
2	242243	76.91	0
2	242565	77.01	0
2	242881	77.11	0
2	243197	77.21	0
2	243513	77.31	0
2	243829	77.41	0
2	244145	77.51	0
2	244461	77.61	0
2	244777	77.71	0
2	245093	77.81	0
2	245409	77.91	0
2	245731	78.01	0
2	246047	78.11	0
2	246363	78.21	0
2	246679	78.31	0
2	246995	78.41	0
2	247311	78.51	0
2	247627	78.61	0
2	247943	78.71	0
2	248259	78.81	0
2	248575	78.91	0
2	248897	79.01	0
2	249213	79.11	0
2	249529	79.21	0
2	249845	79.31	0
2	250161	79.41	0
2	250477	79.51	0
2	250793	79.61	0
2	251109	79.71	0
2	251425	79.81	0
2	251741	79.91	0
2	252063	80.01	0
2	252379	80.11	0
2	252695	80.21	0
2	253011	80.31	0
2	253327	80.41	0
2	253643	80.51	0
2	253959	80.61	0
2	254275	80.71	0
2	254591	80.81	0
2	254907	80.91	0
2	255229	81.01	0
2	255545	81.11	0
2	255861	81.21	0
2	256177	81.31	0
2	256493	81.41	0
2	256809	81.51	0
2	257125	81.61	0
2	257441	81.71	0
2	257757	81.81	0
2	258073	81.91	0
2	258395	82.01	0
2	258711	82.11	0
2	259027	82.21	0
2	259343	82.31	0
2	259659	82.41	0
2	259975	82.51	0
2	260291	82.61	0
2	260607	82.71	0
2	260923	82.81	0
2	261239	82.91	0
2	261561	83.01	0
2	261877	83.11	0
2	262193	83.21	0
2	262509	83.31	0
2	262825	83.41	0
2	263141	83.51	0
2	263457	83.61	0
2	263773	83.71	0
2	264089	83.81	0
2	264405	83.91	0
2	264727	84.01	0
2	265043	84.11	0
2	265359	84.21	0
2	265675	84.31	0
2	265991	84.41	0
2	266307	84.51	0
2	266623	84.61	0
2	266939	84.71	0
2	267255	84.81	0
2	267571	84.91	0
2	267893	85.01	0
2	268209	85.11	0
2	268525	85.21	0
2	268841	85.31	0
2	269157	85.41	0
2	269473	85.51	0
2	269789	85.61	0
2	270105	85.71	0
2	270421	85.81	0
2	270737	85.91	0
2	271059	86.01	0
2	271375	86.11	0
2	271691	86.21	0
2	272007	86.31	0
2	272323	86.41	0
2	272639	86.51	0
2	272955	86.61	0
2	273271	86.71	0
2	273587	86.81	0
2	273903	86.91	0
2	274225	87.01	0
2	274541	87.11	0
2	274857	87.21	0
2	275173	87.31	0
2	275489	87.41	0
2	275805	87.51	0
2	276121	87.61	0
2	276437	87.71	0
2	276753	87.81	0
2	277069	87.91	0
2	277391	88.01	0
2	277707	88.11	0
2	278023	88.21	0
2	278339	88.31	0
2	278655	88.41	0
2	278971	88.51	0
2	279287	88.61	0
2	279603	88.71	0
2	279919	88.81	0
2	280235	88.91	0
2	280557	89.01	0
2	280873	89.11	0
2	281189	89.21	0
2	281505	89.31	0
2	281821	89.41	0
2	282137	89.51	0
2	282453	89.61	0
2	282769	89.71	0
2	283085	89.81	0
2	283401	89.91	0
2	283723	90.01	0
2	284039	90.11	0
2	284355	90.21	0
2	284671	90.31	0
2	284987	90.41	0
2	285303	90.51	0
2	285619	90.61	0
2	285935	90.71	0
2	286251	90.81	0
2	286567	90.91	0
2	286889	91.01	0
2	287205	91.11	0
2	287521	91.21	0
2	287837	91.31	0
2	288153	91.41	0
2	288469	91.51	0
2	288785	91.61	0
2	289101	91.71	0
2	289417	91.81	0
2	289733	91.91	0
2	290055	92.01	0
2	290371	92.11	0
2	290687	92.21	0
2	291003	92.31	0
2	291319	92.41	0
2	291635	92.51	0
2	291951	92.61	0
2	292267	92.71	0
2	292583	92.81	0
2	292899	92.91	0
2	293221	93.01	0
2	293537	93.11	0
2	293853	93.21	0
2	294169	93.31	0
2	294485	93.41	0
2	294801	93.51	0
2	295117	93.61	0
2	295433	93.71	0
2	295749	93.81	0
2	296065	93.91	0
2	296387	94.01	0
2	296703	94.11	0
2	297019	94.21	0
2	297335	94.31	0
2	297651	94.41	0
2	297967	94.51	0
2	298283	94.61	0
2	298599	94.71	0
2	298915	94.81	0
2	299231	94.91	0
2	299553	95.01	0
2	299869	95.11	0
2	300185	95.21	0
2	300501	95.31	0
2	300817	95.41	0
2	301133	95.51	0
2	301449	95.61	0
2	301765	95.71	0
2	302081	95.81	0
2	302397	95.91	0
2	302719	96.01	0
2	303035	96.11	0
2	303351	96.21	0
2	303667	96.31	0
2	303983	96.41	0
2	304299	96.51	0
2	304615	96.61	0
2	304931	96.71	0
2	305247	96.81	0
2	305563	96.91	0
2	305885	97.01	0
2	306201	97.11	0
2	306517	97.21	0
2	306833	97.31	0
2	307149	97.41	0
2	307465	97.51	0
2	307781	97.61	0
2	308097	97.71	0
2	308413	97.81	0
2	308729	97.91	0
2	309051	98.01	0
2	309367	98.11	0
2	309683	98.21	0
2	309999	98.31	0
2	310315	98.41	0
2	310631	98.51	0
2	310947	98.61	0
2	311263	98.71	0
2	311579	98.81	0
2	311895	98.91	0
2	312217	99.01	0
2	312533	99.11	0
2	312849	99.21	0
2	313165	99.31	0
2	313481	99.41	0
2	313797	99.51	0
2	314113	99.61	0
2	314429	99.71	0
2	314745	99.81	0
2	315061	99.91	0
3	113	1.11	0.000179096
3	429	1.21	0.000340852
3	745	1.31	0.000467435
3	1061	1.41	0.000562893
3	1377	1.51	0.000631106
3	1693	1.61	0.000675745
3	2009	1.71	0.000700245
3	2325	1.81	0.000707784
3	2641	1.91	0.000701273
3	2963	2.01	0.000683354
3	3279	2.11	0.000656398
3	3595	2.21	0.000622512
3	3911	2.31	0.000583548
3	4227	2.41	0.000541117
3	4543	2.51	0.000496604
3	4859	2.61	0.000451181
3	5175	2.71	0.000405825
3	5491	2.81	0.00036134
3	5807	2.91	0.000318365
3	6129	3.01	0.0002774
3	6445	3.11	0.00023882
3	6761	3.21	0.000202887
3	7077	3.31	0.00016977
3	7393	3.41	0.000139558
3	7709	3.51	0.000112271
3	8025	3.61	8.78717e-05
3	8341	3.71	6.628e-05
3	8657	3.81	4.73785e-05
3	8973	3.91	3.1023e-05
3	9295	4.01	1.70493e-05
3	9611	4.11	5.28023e-06
3	9927	4.21	-4.46922e-06
3	10243	4.31	-1.2387e-05
3	10559	4.41	-1.86602e-05
3	10875	4.51	-2.34717e-05
3	11191	4.61	-2.69978e-05
3	11507	4.71	-2.94062e-05
3	11823	4.81	-3.08545e-05
3	12139	4.91	-3.14892e-05
3	12461	5.01	-3.14451e-05
3	12777	5.11	-3.0845e-05
3	13093	5.21	-2.97994e-05
3	13409	5.31	-2.84072e-05
3	13725	5.41	-2.67556e-05
3	14041	5.51	-2.49208e-05
3	14357	5.61	-2.29687e-05
3	14673	5.71	-2.09553e-05
3	14989	5.81	-1.89277e-05
3	15305	5.91	-1.6925e-05
3	15627	6.01	-1.49784e-05
3	15943	6.11	-1.31129e-05
3	16259	6.21	-1.13474e-05
3	16575	6.31	-9.69553e-06
3	16891	6.41	-8.16651e-06
3	17207	6.51	-6.76571e-06
3	17523	6.61	-5.49522e-06
3	17839	6.71	-4.35441e-06
3	18155	6.81	-3.34045e-06
3	18471	6.91	-2.44874e-06
3	18793	7.01	-1.6733e-06
3	19109	7.11	-1.00716e-06
3	19425	7.21	-4.42628e-07
3	19741	7.31	2.84224e-08
3	20057	7.41	4.14339e-07
3	20373	7.51	7.23492e-07
3	20689	7.61	9.6413e-07
3	21005	7.71	1.14424e-06
3	21321	7.81	1.27148e-06
3	21637	7.91	1.35305e-06
3	21959	8.01	1.3957e-06
3	22275	8.11	1.40565e-06
3	22591	8.21	1.3886e-06
3	22907	8.31	1.34971e-06
3	23223	8.41	1.2936e-06
3	23539	8.51	1.22437e-06
3	23855	8.61	1.14561e-06
3	24171	8.71	1.06046e-06
3	24487	8.81	9.71582e-07
3	24803	8.91	8.81246e-07
3	25125	9.01	7.91334e-07
3	25441	9.11	7.03381e-07
3	25757	9.21	6.18613e-07
3	26073	9.31	5.37979e-07
3	26389	9.41	4.62183e-07
3	26705	9.51	3.91714e-07
3	27021	9.61	3.26878e-07
3	27337	9.71	2.67827e-07
3	27653	9.81	2.14581e-07
3	27969	9.91	1.67052e-07
3	28347	10.01	1.25066e-07
3	28668	10.11	8.83794e-08
3	28989	10.21	5.66978e-08
3	29310	10.31	2.96922e-08
3	29631	10.41	7.00453e-09
3	29952	10.51	-1.17325e-08
3	30273	10.61	-2.68933e-08
3	30594	10.71	-3.88482e-08
3	30915	10.81	-4.79581e-08
3	31236	10.91	-5.45704e-08
3	31563	11.01	-5.90177e-08
3	31884	11.11	-6.16069e-08
3	32205	11.21	-6.26265e-08
3	32526	11.31	-6.23395e-08
3	32847	11.41	-6.09859e-08
3	33168	11.51	-5.87811e-08
3	33489	11.61	-5.59183e-08
3	33810	11.71	-5.25674e-08
3	34131	11.81	-4.88761e-08
3	34452	11.91	-4.4971e-08
3	34779	12.01	-4.09599e-08
3	35100	12.11	-3.69354e-08
3	35421	12.21	-3.29713e-08
3	35742	12.31	-2.9128e-08
3	36063	12.41	-2.54531e-08
3	36384	12.51	-2.19821e-08
3	36705	12.61	-1.87399e-08
3	37026	12.71	-1.57428e-08
3	37347	12.81	-1.30029e-08
3	37668	12.91	-1.05217e-08
3	37995	13.01	-8.29772e-09
3	38316	13.11	-6.32454e-09
3	38637	13.21	-4.59224e-09
3	38958	13.31	-3.08802e-09
3	39279	13.41	-1.79838e-09
3	39600	13.51	-7.08411e-10
3	39921	13.61	1.98241e-10
3	40242	13.71	9.37916e-10
3	40563	13.81	1.52767e-09
3	40884	13.91	1.98384e-09
3	41211	14.01	2.32276e-09
3	41532	14.11	2.55937e-09
3	41853	14.21	2.70788e-09
3	42174	14.31	2.78249e-09
3	42495	14.41	2.79243e-09
3	42816	14.51	2.7498e-09
3	43137	14.61	2.66525e-09
3	43458	14.71	2.54872e-09
3	43779	14.81	2.40803e-09
3	44100	14.91	2.24887e-09
3	44427	15.01	2.07763e-09
3	44748	15.11	1.89999e-09
3	45069	15.21	1.72236e-09
3	45390	15.31	1.54472e-09
3	45711	15.41	1.37064e-09
3	46032	15.51	1.20295e-09
3	46353	15.61	1.04379e-09
3	46674	15.71	8.94573e-10
3	46995	15.81	7.56017e-10
3	47316	15.91	6.29541e-10
3	47643	16.01	5.13012e-10
3	47964	16.11	4.09273e-10
3	48285	16.21	3.16902e-10
3	48606	16.31	2.3519e-10
3	48927	16.41	1.63425e-10
3	49248	16.51	1.02318e-10
3	49569	16.61	4.9738e-11
3	49890	16.71	5.68434e-12
3	50211	16.81	-3.05533e-11
3	50532	16.91	-5.8975e-11
3	50859	17.01	-8.10019e-11
3	51180	17.11	-9.80549e-11
3	51501	17.21	-1.11555e-10
3	51822	17.31	-1.18661e-10
3	52143	17.41	-1.23634e-10
3	52464	17.51	-1.23634e-10
3	52785	17.61	-1.23634e-10
3	53106	17.71	-1.21503e-10
3	53427	17.81	-1.14397e-10
3	53748	17.91	-1.07292e-10
3	54075	18.01	-1.00187e-10
3	54396	18.11	-9.30811e-11
3	54717	18.21	-8.59757e-11
3	55038	18.31	-7.88702e-11
3	55359	18.41	-7.17648e-11
3	55680	18.51	-6.46594e-11
3	56001	18.61	-5.7554e-11
3	56322	18.71	-5.04485e-11
3	56643	18.81	-4.33431e-11
3	56964	18.91	-3.62377e-11
3	57291	19.01	-2.91323e-11
3	57612	19.11	-2.20268e-11
3	57933	19.21	-1.7053e-11
3	58254	19.31	-1.49214e-11
3	58575	19.41	-1.35003e-11
3	58896	19.51	-1.27898e-11
3	59217	19.61	-1.13687e-11
3	59538	19.71	-9.9476e-12
3	59859	19.81	-9.23706e-12
3	60180	19.91	-8.52651e-12
3	60507	20.01	-7.81597e-12
3	60828	20.11	-7.10543e-12
3	61149	20.21	-6.39488e-12
3	61470	20.31	-5.68434e-12
3	61791	20.41	-4.9738e-12
3	62112	20.51	-4.26326e-12
3	62433	20.61	-4.26326e-12
3	62754	20.71	-3.55271e-12
3	63075	20.81	-3.55271e-12
3	63396	20.91	-2.84217e-12
3	63723	21.01	-2.84217e-12
3	64044	21.11	-2.84217e-12
3	64365	21.21	-2.13163e-12
3	64686	21.31	-2.13163e-12
3	65007	21.41	-2.13163e-12
3	65328	21.51	-1.42109e-12
3	65649	21.61	-1.42109e-12
3	65970	21.71	-1.42109e-12
3	66291	21.81	-1.42109e-12
3	66612	21.91	-1.42109e-12
3	66939	22.01	-7.10543e-13
3	67260	22.11	-7.10543e-13
3	67581	22.21	-7.10543e-13
3	67902	22.31	-7.10543e-13
3	68223	22.41	-7.10543e-13
3	68544	22.51	-7.10543e-13
3	68865	22.61	-7.10543e-13
3	69186	22.71	-7.10543e-13
3	69507	22.81	-7.10543e-13
3	69828	22.91	-7.10543e-13
3	70155	23.01	0
3	70476	23.11	0
3	70797	23.21	0
3	71118	23.31	0
3	71439	23.41	0
3	71760	23.51	0
3	72081	23.61	0
3	72402	23.71	0
3	72723	23.81	0
3	73044	23.91	0
3	73371	24.01	0
3	73692	24.11	0
3	74013	24.21	0
3	74334	24.31	0
3	74655	24.41	0
3	74976	24.51	0
3	75297	24.61	0
3	75618	24.71	0
3	75939	24.81	0
3	76260	24.91	0
3	76587	25.01	0
3	76908	25.11	0
3	77229	25.21	0
3	77550	25.31	0
3	77871	25.41	0
3	78192	25.51	0
3	78513	25.61	0
3	78834	25.71	0
3	79155	25.81	0
3	79476	25.91	0
3	79803	26.01	0
3	80124	26.11	0
3	80445	26.21	0
3	80766	26.31	0
3	81087	26.41	0
3	81408	26.51	0
3	81729	26.61	0
3	82050	26.71	0
3	82371	26.81	0
3	82692	26.91	0
3	83019	27.01	0
3	83340	27.11	0
3	83661	27.21	0
3	83982	27.31	0
3	84303	27.41	0
3	84624	27.51	0
3	84945	27.61	0
3	85266	27.71	0
3	85587	27.81	0
3	85908	27.91	0
3	86235	28.01	0
3	86556	28.11	0
3	86877	28.21	0
3	87198	28.31	0
3	87519	28.41	0
3	87840	28.51	0
3	88161	28.61	0
3	88482	28.71	0
3	88803	28.81	0
3	89124	28.91	0
3	89451	29.01	0
3	89772	29.11	0
3	90093	29.21	0
3	90487	29.31	0
3	90807	29.41	0
3	91127	29.51	0
3	91447	29.61	0
3	91767	29.71	0
3	92087	29.81	0
3	92407	29.91	0
3	92733	30.01	0
3	93053	30.11	0
3	93373	30.21	0
3	93693	30.31	0
3	94013	30.41	0
3	94333	30.51	0
3	94653	30.61	0
3	94973	30.71	0
3	95293	30.81	0
3	95613	30.91	0
3	95939	31.01	0
3	96259	31.11	0
3	96579	31.21	0
3	96899	31.31	0
3	97219	31.41	0
3	97539	31.51	0
3	97859	31.61	0
3	98179	31.71	0
3	98499	31.81	0
3	98819	31.91	0
3	99145	32.01	0
3	99465	32.11	0
3	99785	32.21	0
3	100105	32.31	0
3	100425	32.41	0
3	100745	32.51	0
3	101065	32.61	0
3	101385	32.71	0
3	101705	32.81	0
3	102025	32.91	0
3	102351	33.01	0
3	102671	33.11	0
3	102991	33.21	0
3	103311	33.31	0
3	103631	33.41	0
3	104024	33.51	0
3	104343	33.61	0
3	104662	33.71	0
3	104981	33.81	0
3	105300	33.91	0
3	105625	34.01	0
3	105944	34.11	0
3	106263	34.21	0
3	106582	34.31	0
3	106901	34.41	0
3	107220	34.51	0
3	107539	34.61	0
3	107858	34.71	0
3	108177	34.81	0
3	108496	34.91	0
3	108821	35.01	0
3	109140	35.11	0
3	109459	35.21	0
3	109778	35.31	0
3	110097	35.41	0
3	110416	35.51	0
3	110735	35.61	0
3	111054	35.71	0
3	111373	35.81	0
3	111692	35.91	0
3	112017	36.01	0
3	112336	36.11	0
3	112655	36.21	0
3	112974	36.31	0
3	113293	36.41	0
3	113612	36.51	0
3	113931	36.61	0
3	114250	36.71	0
3	114569	36.81	0
3	114888	36.91	0
3	115213	37.01	0
3	115532	37.11	0
3	115851	37.21	0
3	116170	37.31	0
3	116489	37.41	0
3	116881	37.51	0
3	117199	37.61	0
3	117517	37.71	0
3	117835	37.81	0
3	118153	37.91	0
3	118477	38.01	0
3	118795	38.11	0
3	119113	38.21	0
3	119431	38.31	0
3	119749	38.41	0
3	120067	38.51	0
3	120385	38.61	0
3	120703	38.71	0
3	121021	38.81	0
3	121339	38.91	0
3	121663	39.01	0
3	121981	39.11	0
3	122299	39.21	0
3	122617	39.31	0
3	122935	39.41	0
3	123253	39.51	0
3	123571	39.61	0
3	123889	39.71	0
3	124207	39.81	0
3	124525	39.91	0
3	124849	40.01	0
3	125167	40.11	0
3	125485	40.21	0
3	125803	40.31	0
3	126121	40.41	0
3	126439	40.51	0
3	126757	40.61	0
3	127075	40.71	0
3	127393	40.81	0
3	127711	40.91	0
3	128035	41.01	0
3	128353	41.11	0
3	128671	41.21	0
3	129062	41.31	0
3	129379	41.41	0
3	129696	41.51	0
3	130013	41.61	0
3	130330	41.71	0
3	130647	41.81	0
3	130964	41.91	0
3	131287	42.01	0
3	131604	42.11	0
3	131921	42.21	0
3	132238	42.31	0
3	132555	42.41	0
3	132872	42.51	0
3	133189	42.61	0
3	133506	42.71	0
3	133823	42.81	0
3	134140	42.91	0
3	134463	43.01	0
3	134780	43.11	0
3	135097	43.21	0
3	135414	43.31	0
3	135731	43.41	0
3	136048	43.51	0
3	136365	43.61	0
3	136682	43.71	0
3	136999	43.81	0
3	137316	43.91	0
3	137639	44.01	0
3	137956	44.11	0
3	138273	44.21	0
3	138590	44.31	0
3	138907	44.41	0
3	139224	44.51	0
3	139541	44.61	0
3	139858	44.71	0
3	140175	44.81	0
3	140492	44.91	0
3	141253	45.01	0
3	141569	45.11	0
3	141885	45.21	0
3	142201	45.31	0
3	142517	45.41	0
3	142833	45.51	0
3	143149	45.61	0
3	143465	45.71	0
3	143781	45.81	0
3	144097	45.91	0
3	144419	46.01	0
3	144735	46.11	0
3	145051	46.21	0
3	145367	46.31	0
3	145683	46.41	0
3	145999	46.51	0
3	146315	46.61	0
3	146631	46.71	0
3	146947	46.81	0
3	147263	46.91	0
3	147585	47.01	0
3	147901	47.11	0
3	148217	47.21	0
3	148533	47.31	0
3	148849	47.41	0
3	149165	47.51	0
3	149481	47.61	0
3	149797	47.71	0
3	150113	47.81	0
3	150429	47.91	0
3	150751	48.01	0
3	151067	48.11	0
3	151383	48.21	0
3	151699	48.31	0
3	152015	48.41	0
3	152331	48.51	0
3	152647	48.61	0
3	152963	48.71	0
3	153279	48.81	0
3	153595	48.91	0
3	153917	49.01	0
3	154233	49.11	0
3	154549	49.21	0
3	154865	49.31	0
3	155181	49.41	0
3	155497	49.51	0
3	155813	49.61	0
3	156129	49.71	0
3	156445	49.81	0
3	156761	49.91	0
3	157083	50.01	0
3	157399	50.11	0
3	157715	50.21	0
3	158031	50.31	0
3	158347	50.41	0
3	158663	50.51	0
3	158979	50.61	0
3	159295	50.71	0
3	159611	50.81	0
3	159927	50.91	0
3	160249	51.01	0
3	160565	51.11	0
3	160881	51.21	0
3	161197	51.31	0
3	161513	51.41	0
3	161829	51.51	0
3	162145	51.61	0
3	162461	51.71	0
3	162777	51.81	0
3	163093	51.91	0
3	163415	52.01	0
3	163731	52.11	0
3	164047	52.21	0
3	164363	52.31	0
3	164679	52.41	0
3	164995	52.51	0
3	165311	52.61	0
3	165627	52.71	0
3	165943	52.81	0
3	166259	52.91	0
3	166581	53.01	0
3	166897	53.11	0
3	167213	53.21	0
3	167529	53.31	0
3	167845	53.41	0
3	168161	53.51	0
3	168477	53.61	0
3	168793	53.71	0
3	169109	53.81	0
3	169425	53.91	0
3	169747	54.01	0
3	170063	54.11	0
3	170379	54.21	0
3	170695	54.31	0
3	171011	54.41	0
3	171327	54.51	0
3	171643	54.61	0
3	171959	54.71	0
3	172275	54.81	0
3	172591	54.91	0
3	172913	55.01	0
3	173229	55.11	0
3	173545	55.21	0
3	173861	55.31	0
3	174177	55.41	0
3	174493	55.51	0
3	174809	55.61	0
3	175125	55.71	0
3	175441	55.81	0
3	175757	55.91	0
3	176079	56.01	0
3	176395	56.11	0
3	176711	56.21	0
3	177027	56.31	0
3	177343	56.41	0
3	177659	56.51	0
3	177975	56.61	0
3	178291	56.71	0
3	178607	56.81	0
3	178923	56.91	0
3	179245	57.01	0
3	179561	57.11	0
3	179877	57.21	0
3	180193	57.31	0
3	180509	57.41	0
3	180825	57.51	0
3	181141	57.61	0
3	181457	57.71	0
3	181773	57.81	0
3	182089	57.91	0
3	182411	58.01	0
3	182727	58.11	0
3	183043	58.21	0
3	183359	58.31	0
3	183675	58.41	0
3	183991	58.51	0
3	184307	58.61	0
3	184623	58.71	0
3	184939	58.81	0
3	185255	58.91	0
3	185577	59.01	0
3	185893	59.11	0
3	186209	59.21	0
3	186525	59.31	0
3	186841	59.41	0
3	187157	59.51	0
3	187473	59.61	0
3	187789	59.71	0
3	188105	59.81	0
3	188421	59.91	0
3	188743	60.01	0
3	189059	60.11	0
3	189375	60.21	0
3	189691	60.31	0
3	190007	60.41	0
3	190323	60.51	0
3	190639	60.61	0
3	190955	60.71	0
3	191271	60.81	0
3	191587	60.91	0
3	191909	61.01	0
3	192225	61.11	0
3	192541	61.21	0
3	192857	61.31	0
3	193173	61.41	0
3	193489	61.51	0
3	193805	61.61	0
3	194121	61.71	0
3	194437	61.81	0
3	194753	61.91	0
3	195075	62.01	0
3	195391	62.11	0
3	195707	62.21	0
3	196023	62.31	0
3	196339	62.41	0
3	196655	62.51	0
3	196971	62.61	0
3	197287	62.71	0
3	197603	62.81	0
3	197919	62.91	0
3	198241	63.01	0
3	198557	63.11	0
3	198873	63.21	0
3	199189	63.31	0
3	199505	63.41	0
3	199821	63.51	0
3	200137	63.61	0
3	200453	63.71	0
3	200769	63.81	0
3	201085	63.91	0
3	201407	64.01	0
3	201723	64.11	0
3	202039	64.21	0
3	202355	64.31	0
3	202671	64.41	0
3	202987	64.51	0
3	203303	64.61	0
3	203619	64.71	0
3	203935	64.81	0
3	204251	64.91	0
3	204573	65.01	0
3	204889	65.11	0
3	205205	65.21	0
3	205521	65.31	0
3	205837	65.41	0
3	206153	65.51	0
3	206469	65.61	0
3	206785	65.71	0
3	207101	65.81	0
3	207417	65.91	0
3	207739	66.01	0
3	208055	66.11	0
3	208371	66.21	0
3	208687	66.31	0
3	209003	66.41	0
3	209319	66.51	0
3	209635	66.61	0
3	209951	66.71	0
3	210267	66.81	0
3	210583	66.91	0
3	210905	67.01	0
3	211221	67.11	0
3	211537	67.21	0
3	211853	67.31	0
3	212169	67.41	0
3	212485	67.51	0
3	212801	67.61	0
3	213117	67.71	0
3	213433	67.81	0
3	213749	67.91	0
3	214071	68.01	0
3	214387	68.11	0
3	214703	68.21	0
3	215019	68.31	0
3	215335	68.41	0
3	215651	68.51	0
3	215967	68.61	0
3	216283	68.71	0
3	216599	68.81	0
3	216915	68.91	0
3	217237	69.01	0
3	217553	69.11	0
3	217869	69.21	0
3	218185	69.31	0
3	218501	69.41	0
3	218817	69.51	0
3	219133	69.61	0
3	219449	69.71	0
3	219765	69.81	0
3	220081	69.91	0
3	220403	70.01	0
3	220719	70.11	0
3	221035	70.21	0
3	221351	70.31	0
3	221667	70.41	0
3	221983	70.51	0
3	222299	70.61	0
3	222615	70.71	0
3	222931	70.81	0
3	223247	70.91	0
3	223569	71.01	0
3	223885	71.11	0
3	224201	71.21	0
3	224517	71.31	0
3	224833	71.41	0
3	225149	71.51	0
3	225465	71.61	0
3	225781	71.71	0
3	226097	71.81	0
3	226413	71.91	0
3	226735	72.01	0
3	227051	72.11	0
3	227367	72.21	0
3	227683	72.31	0
3	227999	72.41	0
3	228315	72.51	0
3	228631	72.61	0
3	228947	72.71	0
3	229263	72.81	0
3	229579	72.91	0
3	229901	73.01	0
3	230217	73.11	0
3	230533	73.21	0
3	230849	73.31	0
3	231165	73.41	0
3	231481	73.51	0
3	231797	73.61	0
3	232113	73.71	0
3	232429	73.81	0
3	232745	73.91	0
3	233067	74.01	0
3	233383	74.11	0
3	233699	74.21	0
3	234015	74.31	0
3	234331	74.41	0
3	234647	74.51	0
3	234963	74.61	0
3	235279	74.71	0
3	235595	74.81	0
3	235911	74.91	0
3	236233	75.01	0
3	236549	75.11	0
3	236865	75.21	0
3	237181	75.31	0
3	237497	75.41	0
3	237813	75.51	0
3	238129	75.61	0
3	238445	75.71	0
3	238761	75.81	0
3	239077	75.91	0
3	239399	76.01	0
3	239715	76.11	0
3	240031	76.21	0
3	240347	76.31	0
3	240663	76.41	0
3	240979	76.51	0
3	241295	76.61	0
3	241611	76.71	0
3	241927	76.81	0
3	242243	76.91	0
3	242565	77.01	0
3	242881	77.11	0
3	243197	77.21	0
3	243513	77.31	0
3	243829	77.41	0
3	244145	77.51	0
3	244461	77.61	0
3	244777	77.71	0
3	245093	77.81	0
3	245409	77.91	0
3	245731	78.01	0
3	246047	78.11	0
3	246363	78.21	0
3	246679	78.31	0
3	246995	78.41	0
3	247311	78.51	0
3	247627	78.61	0
3	247943	78.71	0
3	248259	78.81	0
3	248575	78.91	0
3	248897	79.01	0
3	249213	79.11	0
3	249529	79.21	0
3	249845	79.31	0
3	250161	79.41	0
3	250477	79.51	0
3	250793	79.61	0
3	251109	79.71	0
3	251425	79.81	0
3	251741	79.91	0
3	252063	80.01	0
3	252379	80.11	0
3	252695	80.21	0
3	253011	80.31	0
3	253327	80.41	0
3	253643	80.51	0
3	253959	80.61	0
3	254275	80.71	0
3	254591	80.81	0
3	254907	80.91	0
3	255229	81.01	0
3	255545	81.11	0
3	255861	81.21	0
3	256177	81.31	0
3	256493	81.41	0
3	256809	81.51	0
3	257125	81.61	0
3	257441	81.71	0
3	257757	81.81	0
3	258073	81.91	0
3	258395	82.01	0
3	258711	82.11	0
3	259027	82.21	0
3	259343	82.31	0
3	259659	82.41	0
3	259975	82.51	0
3	260291	82.61	0
3	260607	82.71	0
3	260923	82.81	0
3	261239	82.91	0
3	261561	83.01	0
3	261877	83.11	0
3	262193	83.21	0
3	262509	83.31	0
3	262825	83.41	0
3	263141	83.51	0
3	263457	83.61	0
3	263773	83.71	0
3	264089	83.81	0
3	264405	83.91	0
3	264727	84.01	0
3	265043	84.11	0
3	265359	84.21	0
3	265675	84.31	0
3	265991	84.41	0
3	266307	84.51	0
3	266623	84.61	0
3	266939	84.71	0
3	267255	84.81	0
3	267571	84.91	0
3	267893	85.01	0
3	268209	85.11	0
3	268525	85.21	0
3	268841	85.31	0
3	269157	85.41	0
3	269473	85.51	0
3	269789	85.61	0
3	270105	85.71	0
3	270421	85.81	0
3	270737	85.91	0
3	271059	86.01	0
3	271375	86.11	0
3	271691	86.21	0
3	272007	86.31	0
3	272323	86.41	0
3	272639	86.51	0
3	272955	86.61	0
3	273271	86.71	0
3	273587	86.81	0
3	273903	86.91	0
3	274225	87.01	0
3	274541	87.11	0
3	274857	87.21	0
3	275173	87.31	0
3	275489	87.41	0
3	275805	87.51	0
3	276121	87.61	0
3	276437	87.71	0
3	276753	87.81	0
3	277069	87.91	0
3	277391	88.01	0
3	277707	88.11	0
3	278023	88.21	0
3	278339	88.31	0
3	278655	88.41	0
3	278971	88.51	0
3	279287	88.61	0
3	279603	88.71	0
3	279919	88.81	0
3	280235	88.91	0
3	280557	89.01	0
3	280873	89.11	0
3	281189	89.21	0
3	281505	89.31	0
3	281821	89.41	0
3	282137	89.51	0
3	282453	89.61	0
3	282769	89.71	0
3	283085	89.81	0
3	283401	89.91	0
3	283723	90.01	0
3	284039	90.11	0
3	284355	90.21	0
3	284671	90.31	0
3	284987	90.41	0
3	285303	90.51	0
3	285619	90.61	0
3	285935	90.71	0
3	286251	90.81	0
3	286567	90.91	0
3	286889	91.01	0
3	287205	91.11	0
3	287521	91.21	0
3	287837	91.31	0
3	288153	91.41	0
3	288469	91.51	0
3	288785	91.61	0
3	289101	91.71	0
3	289417	91.81	0
3	289733	91.91	0
3	290055	92.01	0
3	290371	92.11	0
3	290687	92.21	0
3	291003	92.31	0
3	291319	92.41	0
3	291635	92.51	0
3	291951	92.61	0
3	292267	92.71	0
3	292583	92.81	0
3	292899	92.91	0
3	293221	93.01	0
3	293537	93.11	0
3	293853	93.21	0
3	294169	93.31	0
3	294485	93.41	0
3	294801	93.51	0
3	295117	93.61	0
3	295433	93.71	0
3	295749	93.81	0
3	296065	93.91	0
3	296387	94.01	0
3	296703	94.11	0
3	297019	94.21	0
3	297335	94.31	0
3	297651	94.41	0
3	297967	94.51	0
3	298283	94.61	0
3	298599	94.71	0
3	298915	94.81	0
3	299231	94.91	0
3	299553	95.01	-0.0127283
3	299869	95.11	-0.0682118
3	300185	95.21	-0.11125
3	300501	95.31	-0.143344
3	300817	95.41	-0.165904
3	301133	95.51	-0.180241
3	301449	95.61	-0.187568
3	301765	95.71	-0.188993
3	302081	95.81	-0.185525
3	302397	95.91	-0.178072
3	302719	96.01	-0.167449
3	303035	96.11	-0.154376
3	303351	96.21	-0.13949
3	303667	96.31	-0.123342
3	303983	96.41	-0.10641
3	304299	96.51	-0.0891018
3	304615	96.61	-0.0717598
3	304931	96.71	-0.0546685
3	305247	96.81	-0.0380596
3	305563	96.91	-0.0221175
3	305885	97.01	-0.00698499
3	306201	97.11	0.00723224
3	306517	97.21	0.0204605
3	306833	97.31	0.032654
3	307149	97.41	0.0437904
3	307465	97.51	0.0538674
3	307781	97.61	0.0628993
3	308097	97.71	0.070914
3	308413	97.81	0.0779499
3	308729	97.91	0.084054
3	309051	98.01	0.0892793
3	309367	98.11	0.0936833
3	309683	98.21	0.0973261
3	309999	98.31	0.100269
3	310315	98.41	0.102574
3	310631	98.51	0.104302
3	310947	98.61	0.105512
3	311263	98.71	0.106261
3	311579	98.81	0.106604
3	311895	98.91	0.106013
3	312217	99.01	0.103648
3	312533	99.11	0.0998481
3	312849	99.21	0.0949404
3	313165	99.31	0.0892115
3	313481	99.41	0.0829118
3	313797	99.51	0.0762567
3	314113	99.61	0.0694294
3	314429	99.71	0.0625835
3	314745	99.81	0.0558449
3	315061	99.91	0.0493153
4	113	1.11	0.00109259
4	429	1.21	0.00106709
4	745	1.31	0.00102704
4	1061	1.41	0.000975759
4	1377	1.51	0.00091619
4	1693	1.61	0.000850891
4	2009	1.71	0.000782061
4	2325	1.81	0.00071157
4	2641	1.91	0.00064098
4	2963	2.01	0.000571575
4	3279	2.11	0.000504387
4	3595	2.21	0.000440223
4	3911	2.31	0.000379691
4	4227	2.41	0.000323223
4	4543	2.51	0.000271102
4	4859	2.61	0.000223482
4	5175	2.71	0.000180409
4	5491	2.81	0.000141839
4	5807	2.91	0.000107653
[...]
73	267887	85	0
73	271053	86	0
73	274219	87	0
73	277385	88	0
73	280551	89	0
73	283717	90	0
73	286883	91	0
73	290049	92	0
73	293215	93	0
73	296381	94	0
73	299547	95	0
73	302713	96	0
73	305879	97	0
73	309045	98	0
73	312211	99	0
73	315377	100	0
74	2958	2	2
74	6124	3	2
74	9290	4	2
74	12456	5	2
74	15622	6	2
74	18788	7	2
74	21954	8	2
74	25120	9	2
74	28287	10	2
74	31553	11	2
74	34769	12	2
74	37985	13	2
74	41201	14	2
74	44417	15	2
74	47633	16	2
74	50849	17	2
74	54065	18	2
74	57281	19	2
74	60497	20	2
74	63713	21	2
74	66929	22	2
74	70145	23	2
74	73361	24	2
74	76577	25	2
74	79793	26	2
74	83009	27	2
74	86225	28	2
74	89441	29	2
74	92724	30	2
74	95930	31	2
74	99136	32	2
74	102342	33	2
74	105617	34	2
74	108813	35	2
74	112009	36	2
74	115205	37	2
74	118470	38	2
74	121656	39	2
74	124842	40	2
74	128028	41	2
74	131281	42	2
74	134457	43	2
74	137633	44	2
74	140809	45	2
74	144414	46	2
74	147580	47	2
74	150746	48	2
74	153912	49	2
74	157078	50	2
74	160244	51	2
74	163410	52	2
74	166576	53	2
74	169742	54	2
74	172908	55	2
74	176074	56	2
74	179240	57	2
74	182406	58	2
74	185572	59	2
74	188738	60	2
74	191904	61	2
74	195070	62	2
74	198236	63	2
74	201402	64	2
74	204568	65	2
74	207734	66	2
74	210900	67	2
74	214066	68	2
74	217232	69	2
74	220398	70	2
74	223564	71	2
74	226730	72	2
74	229896	73	2
74	233062	74	2
74	236228	75	2
74	239394	76	2
74	242560	77	2
74	245726	78	2
74	248892	79	2
74	252058	80	2
74	255224	81	2
74	258390	82	2
74	261556	83	2
74	264722	84	2
74	267888	85	2
74	271054	86	2
74	274220	87	2
74	277386	88	2
74	280552	89	2
74	283718	90	2
74	286884	91	2
74	290050	92	2
74	293216	93	2
74	296382	94	2
74	299548	95	2
74	302714	96	2
74	305880	97	2
74	309046	98	2
74	312212	99	2
74	315378	100	2
75	2958	2	0.016857
75	6124	3	0.01873
75	9290	4	0.01873
75	12456	5	0.01873
75	15622	6	0.01873
75	18788	7	0.01873
75	21954	8	0.01873
75	25120	9	0.01873
75	28287	10	0.01873
75	31553	11	0.018778
75	34769	12	0.01873
75	37985	13	0.01873
75	41201	14	0.01873
75	44417	15	0.01873
75	47633	16	0.01873
75	50849	17	0.01873
75	54065	18	0.01873
75	57281	19	0.01873
75	60497	20	0.01873
75	63713	21	0.01873
75	66929	22	0.01873
75	70145	23	0.01873
75	73361	24	0.01873
75	76577	25	0.01873
75	79793	26	0.01873
75	83009	27	0.01873
75	86225	28	0.01873
75	89441	29	0.01873
75	92724	30	0.018842
75	95930	31	0.01873
75	99136	32	0.01873
75	102342	33	0.01873
75	105617	34	0.018875092388
75	108813	35	0.01873
75	112009	36	0.01873
75	115205	37	0.01873
75	118470	38	0.018842
75	121656	39	0.01873
75	124842	40	0.01873
75	128028	41	0.01873
75	131281	42	0.018842
75	134457	43	0.01873
75	137633	44	0.01873
75	140809	45	0.01873
75	144414	46	0.019434
75	147580	47	0.01873
75	150746	48	0.01873
75	153912	49	0.01873
75	157078	50	0.01873
75	160244	51	0.01873
75	163410	52	0.01873
75	166576	53	0.01873
75	169742	54	0.01873
75	172908	55	0.01873
75	176074	56	0.01873
75	179240	57	0.01873
75	182406	58	0.01873
75	185572	59	0.01873
75	188738	60	0.01873
75	191904	61	0.01873
75	195070	62	0.01873
75	198236	63	0.01873
75	201402	64	0.01873
75	204568	65	0.01873
75	207734	66	0.01873
75	210900	67	0.01873
75	214066	68	0.01873
75	217232	69	0.01873
75	220398	70	0.01873
75	223564	71	0.01873
75	226730	72	0.01873
75	229896	73	0.01873
75	233062	74	0.01873
75	236228	75	0.01873
75	239394	76	0.01873
75	242560	77	0.01873
75	245726	78	0.01873
75	248892	79	0.01873
75	252058	80	0.01873
75	255224	81	0.01873
75	258390	82	0.01873
75	261556	83	0.01873
75	264722	84	0.01873
75	267888	85	0.01873
75	271054	86	0.01873
75	274220	87	0.01873
75	277386	88	0.01873
75	280552	89	0.01873
75	283718	90	0.01873
75	286884	91	0.01873
75	290050	92	0.01873
75	293216	93	0.01873
75	296382	94	0.01873
75	299548	95	0.01873
75	302714	96	0.01873
75	305880	97	0.01873
75	309046	98	0.01873
75	312212	99	0.01873
75	315378	100	0.01873
76	2958	2	0
76	6124	3	0
76	9290	4	0
76	12456	5	0
76	15622	6	0
76	18788	7	0
76	21954	8	0
76	25120	9	0
76	28287	10	0
76	31553	11	0
76	34769	12	0
76	37985	13	0
76	41201	14	0
76	44417	15	0
76	47633	16	0
76	50849	17	0
76	54065	18	0
76	57281	19	0
76	60497	20	0
76	63713	21	0
76	66929	22	0
76	70145	23	0
76	73361	24	0
76	76577	25	0
76	79793	26	0
76	83009	27	0
76	86225	28	0
76	89441	29	0
76	92724	30	0
76	95930	31	0
76	99136	32	0
76	102342	33	0
76	105617	34	0
76	108813	35	0
76	112009	36	0
76	115205	37	0
76	118470	38	0
76	121656	39	0
76	124842	40	0
76	128028	41	0
76	131281	42	0
76	134457	43	0
76	137633	44	0
76	140809	45	0
76	144414	46	0
76	147580	47	0
76	150746	48	0
76	153912	49	0
76	157078	50	0
76	160244	51	0
76	163410	52	0
76	166576	53	0
76	169742	54	0
76	172908	55	0
76	176074	56	0
76	179240	57	0
76	182406	58	0
76	185572	59	0
76	188738	60	0
76	191904	61	0
76	195070	62	0
76	198236	63	0
76	201402	64	0
76	204568	65	0
76	207734	66	0
76	210900	67	0
76	214066	68	0
76	217232	69	0
76	220398	70	0
76	223564	71	0
76	226730	72	0
76	229896	73	0
76	233062	74	0
76	236228	75	0
76	239394	76	0
76	242560	77	0
76	245726	78	0
76	248892	79	0
76	252058	80	0
76	255224	81	0
76	258390	82	0
76	261556	83	0
76	264722	84	0
76	267888	85	0
76	271054	86	0
76	274220	87	0
76	277386	88	0
76	280552	89	0
76	283718	90	0
76	286884	91	0
76	290050	92	0
76	293216	93	0
76	296382	94	0
76	299548	95	0
76	302714	96	0
76	305880	97	0
76	309046	98	0
76	312212	99	0
76	315378	100	0
77	2959	2	3
77	6125	3	3
77	9291	4	3
77	12457	5	3
77	15623	6	3
77	18789	7	3
77	21955	8	3
77	25121	9	3
77	28288	10	3
77	31554	11	3
77	34770	12	3
77	37986	13	3
77	41202	14	3
77	44418	15	3
77	47634	16	3
77	50850	17	3
77	54066	18	3
77	57282	19	3
77	60498	20	3
77	63714	21	3
77	66930	22	3
77	70146	23	3
77	73362	24	3
77	76578	25	3
77	79794	26	3
77	83010	27	3
77	86226	28	3
77	89442	29	3
77	92725	30	3
77	95931	31	3
77	99137	32	3
77	102343	33	3
77	105618	34	3
77	108814	35	3
77	112010	36	3
77	115206	37	3
77	118471	38	3
77	121657	39	3
77	124843	40	3
77	128029	41	3
77	131282	42	3
77	134458	43	3
77	137634	44	3
77	140810	45	3
77	144415	46	3
77	147581	47	3
77	150747	48	3
77	153913	49	3
77	157079	50	3
77	160245	51	3
77	163411	52	3
77	166577	53	3
77	169743	54	3
77	172909	55	3
77	176075	56	3
77	179241	57	3
77	182407	58	3
77	185573	59	3
77	188739	60	3
77	191905	61	3
77	195071	62	3
77	198237	63	3
77	201403	64	3
77	204569	65	3
77	207735	66	3
77	210901	67	3
77	214067	68	3
77	217233	69	3
77	220399	70	3
77	223565	71	3
77	226731	72	3
77	229897	73	3
77	233063	74	3
77	236229	75	3
77	239395	76	3
77	242561	77	3
77	245727	78	3
77	248893	79	3
77	252059	80	3
77	255225	81	3
77	258391	82	3
77	261557	83	3
77	264723	84	3
77	267889	85	3
77	271055	86	3
77	274221	87	3
77	277387	88	3
77	280553	89	3
77	283719	90	3
77	286885	91	3
77	290051	92	3
77	293217	93	3
77	296383	94	3
77	299549	95	3
77	302715	96	3
77	305881	97	3
77	309047	98	3
77	312213	99	3
77	315379	100	3
78	2959	2	0.016857
78	6125	3	0.01873
78	9291	4	0.01873
78	12457	5	0.01873
78	15623	6	0.01873
78	18789	7	0.01873
78	21955	8	0.01873
78	25121	9	0.01873
78	28288	10	0.01873
78	31554	11	0.018778
78	34770	12	0.01873
78	37986	13	0.01873
78	41202	14	0.01873
78	44418	15	0.01873
78	47634	16	0.01873
78	50850	17	0.01873
78	54066	18	0.01873
78	57282	19	0.01873
78	60498	20	0.01873
78	63714	21	0.01873
78	66930	22	0.01873
78	70146	23	0.01873
78	73362	24	0.01873
78	76578	25	0.01873
78	79794	26	0.01873
78	83010	27	0.01873
78	86226	28	0.01873
78	89442	29	0.01873
78	92725	30	0.018842
78	95931	31	0.01873
78	99137	32	0.01873
78	102343	33	0.01873
78	105618	34	0.018842
78	108814	35	0.01873
78	112010	36	0.01873
78	115206	37	0.01873
78	118471	38	0.018875138864
78	121657	39	0.01873
78	124843	40	0.01873
78	128029	41	0.01873
78	131282	42	0.018842
78	134458	43	0.01873
78	137634	44	0.01873
78	140810	45	0.01873
78	144415	46	0.019434
78	147581	47	0.01873
78	150747	48	0.01873
78	153913	49	0.01873
78	157079	50	0.01873
78	160245	51	0.01873
78	163411	52	0.01873
78	166577	53	0.01873
78	169743	54	0.01873
78	172909	55	0.01873
78	176075	56	0.01873
78	179241	57	0.01873
78	182407	58	0.01873
78	185573	59	0.01873
78	188739	60	0.01873
78	191905	61	0.01873
78	195071	62	0.01873
78	198237	63	0.01873
78	201403	64	0.01873
78	204569	65	0.01873
78	207735	66	0.01873
78	210901	67	0.01873
78	214067	68	0.01873
78	217233	69	0.01873
78	220399	70	0.01873
78	223565	71	0.01873
78	226731	72	0.01873
78	229897	73	0.01873
78	233063	74	0.01873
78	236229	75	0.01873
78	239395	76	0.01873
78	242561	77	0.01873
78	245727	78	0.01873
78	248893	79	0.01873
78	252059	80	0.01873
78	255225	81	0.01873
78	258391	82	0.01873
78	261557	83	0.01873
78	264723	84	0.01873
78	267889	85	0.01873
78	271055	86	0.01873
78	274221	87	0.01873
78	277387	88	0.01873
78	280553	89	0.01873
78	283719	90	0.01873
78	286885	91	0.01873
78	290051	92	0.01873
78	293217	93	0.01873
78	296383	94	0.01873
78	299549	95	0.01873
78	302715	96	0.01873
78	305881	97	0.01873
78	309047	98	0.01873
78	312213	99	0.01873
78	315379	100	0.01873
79	2959	2	0
79	6125	3	0
79	9291	4	0
79	12457	5	0
79	15623	6	0
79	18789	7	0
79	21955	8	0
79	25121	9	0
79	28288	10	0
79	31554	11	0
79	34770	12	0
79	37986	13	0
79	41202	14	0
79	44418	15	0
79	47634	16	0
79	50850	17	0
79	54066	18	0
79	57282	19	0
79	60498	20	0
79	63714	21	0
79	66930	22	0
79	70146	23	0
79	73362	24	0
79	76578	25	0
79	79794	26	0
79	83010	27	0
79	86226	28	0
79	89442	29	0
79	92725	30	0
79	95931	31	0
79	99137	32	0
79	102343	33	0
79	105618	34	0
79	108814	35	0
79	112010	36	0
79	115206	37	0
79	118471	38	0
79	121657	39	0
79	124843	40	0
79	128029	41	0
79	131282	42	0
79	134458	43	0
79	137634	44	0
79	140810	45	0
79	144415	46	0
79	147581	47	0
79	150747	48	0
79	153913	49	0
79	157079	50	0
79	160245	51	0
79	163411	52	0
79	166577	53	0
79	169743	54	0
79	172909	55	0
79	176075	56	0
79	179241	57	0
79	182407	58	0
79	185573	59	0
79	188739	60	0
79	191905	61	0
79	195071	62	0
79	198237	63	0
79	201403	64	0
79	204569	65	0
79	207735	66	0
79	210901	67	0
79	214067	68	0
79	217233	69	0
79	220399	70	0
79	223565	71	0
79	226731	72	0
79	229897	73	0
79	233063	74	0
79	236229	75	0
79	239395	76	0
79	242561	77	0
79	245727	78	0
79	248893	79	0
79	252059	80	0
79	255225	81	0
79	258391	82	0
79	261557	83	0
79	264723	84	0
79	267889	85	0
79	271055	86	0
79	274221	87	0
79	277387	88	0
79	280553	89	0
79	283719	90	0
79	286885	91	0
79	290051	92	0
79	293217	93	0
79	296383	94	0
79	299549	95	0
79	302715	96	0
79	305881	97	0
79	309047	98	0
79	312213	99	0
79	315379	100	0
80	2960	2	4
80	6126	3	4
80	9292	4	4
80	12458	5	4
80	15624	6	4
80	18790	7	4
80	21956	8	4
80	25122	9	4
80	28289	10	4
80	31555	11	4
80	34771	12	4
80	37987	13	4
80	41203	14	4
80	44419	15	4
80	47635	16	4
80	50851	17	4
80	54067	18	4
80	57283	19	4
80	60499	20	4
80	63715	21	4
80	66931	22	4
80	70147	23	4
80	73363	24	4
80	76579	25	4
80	79795	26	4
80	83011	27	4
80	86227	28	4
80	89443	29	4
80	92726	30	4
80	95932	31	4
80	99138	32	4
80	102344	33	4
80	105619	34	4
80	108815	35	4
80	112011	36	4
80	115207	37	4
80	118472	38	4
80	121658	39	4
80	124844	40	4
80	128030	41	4
80	131283	42	4
80	134459	43	4
80	137635	44	4
80	140811	45	4
80	144416	46	4
80	147582	47	4
80	150748	48	4
80	153914	49	4
80	157080	50	4
80	160246	51	4
80	163412	52	4
80	166578	53	4
80	169744	54	4
80	172910	55	4
80	176076	56	4
80	179242	57	4
80	182408	58	4
80	185574	59	4
80	188740	60	4
80	191906	61	4
80	195072	62	4
80	198238	63	4
80	201404	64	4
80	204570	65	4
80	207736	66	4
80	210902	67	4
80	214068	68	4
80	217234	69	4
80	220400	70	4
80	223566	71	4
80	226732	72	4
80	229898	73	4
80	233064	74	4
80	236230	75	4
80	239396	76	4
80	242562	77	4
80	245728	78	4
80	248894	79	4
80	252060	80	4
80	255226	81	4
80	258392	82	4
80	261558	83	4
80	264724	84	4
80	267890	85	4
80	271056	86	4
80	274222	87	4
80	277388	88	4
80	280554	89	4
80	283720	90	4
80	286886	91	4
80	290052	92	4
80	293218	93	4
80	296384	94	4
80	299550	95	4
80	302716	96	4
80	305882	97	4
80	309048	98	4
80	312214	99	4
80	315380	100	4
81	2960	2	0.016857
81	6126	3	0.01873
81	9292	4	0.01873
81	12458	5	0.01873
81	15624	6	0.01873
81	18790	7	0.01873
81	21956	8	0.01873
81	25122	9	0.01873
81	28289	10	0.01873
81	31555	11	0.018778
81	34771	12	0.01873
81	37987	13	0.01873
81	41203	14	0.01873
81	44419	15	0.01873
81	47635	16	0.01873
81	50851	17	0.01873
81	54067	18	0.01873
81	57283	19	0.01873
81	60499	20	0.01873
81	63715	21	0.01873
81	66931	22	0.01873
81	70147	23	0.01873
81	73363	24	0.01873
81	76579	25	0.01873
81	79795	26	0.01873
81	83011	27	0.01873
81	86227	28	0.01873
81	89443	29	0.01873
81	92726	30	0.018842
81	95932	31	0.01873
81	99138	32	0.01873
81	102344	33	0.01873
81	105619	34	0.018842
81	108815	35	0.01873
81	112011	36	0.01873
81	115207	37	0.01873
81	118472	38	0.018842
81	121658	39	0.01873
81	124844	40	0.01873
81	128030	41	0.01873
81	131283	42	0.018875185388
81	134459	43	0.01873
81	137635	44	0.01873
81	140811	45	0.01873
81	144416	46	0.019434
81	147582	47	0.01873
81	150748	48	0.01873
81	153914	49	0.01873
81	157080	50	0.01873
81	160246	51	0.01873
81	163412	52	0.01873
81	166578	53	0.01873
81	169744	54	0.01873
81	172910	55	0.01873
81	176076	56	0.01873
81	179242	57	0.01873
81	182408	58	0.01873
81	185574	59	0.01873
81	188740	60	0.01873
81	191906	61	0.01873
81	195072	62	0.01873
81	198238	63	0.01873
81	201404	64	0.01873
81	204570	65	0.01873
81	207736	66	0.01873
81	210902	67	0.01873
81	214068	68	0.01873
81	217234	69	0.01873
81	220400	70	0.01873
81	223566	71	0.01873
81	226732	72	0.01873
81	229898	73	0.01873
81	233064	74	0.01873
81	236230	75	0.01873
81	239396	76	0.01873
81	242562	77	0.01873
81	245728	78	0.01873
81	248894	79	0.01873
81	252060	80	0.01873
81	255226	81	0.01873
81	258392	82	0.01873
81	261558	83	0.01873
81	264724	84	0.01873
81	267890	85	0.01873
81	271056	86	0.01873
81	274222	87	0.01873
81	277388	88	0.01873
81	280554	89	0.01873
81	283720	90	0.01873
81	286886	91	0.01873
81	290052	92	0.01873
81	293218	93	0.01873
81	296384	94	0.01873
81	299550	95	0.01873
81	302716	96	0.01873
81	305882	97	0.01873
81	309048	98	0.01873
81	312214	99	0.01873
81	315380	100	0.01873
82	2960	2	0
82	6126	3	0
82	9292	4	0
82	12458	5	0
82	15624	6	0
82	18790	7	0
82	21956	8	0
82	25122	9	0
82	28289	10	0
82	31555	11	0
82	34771	12	0
82	37987	13	0
82	41203	14	0
82	44419	15	0
82	47635	16	0
82	50851	17	0
82	54067	18	0
82	57283	19	0
82	60499	20	0
82	63715	21	0
82	66931	22	0
82	70147	23	0
82	73363	24	0
82	76579	25	0
82	79795	26	0
82	83011	27	0
82	86227	28	0
82	89443	29	0
82	92726	30	0
82	95932	31	0
82	99138	32	0
82	102344	33	0
82	105619	34	0
82	108815	35	0
82	112011	36	0
82	115207	37	0
82	118472	38	0
82	121658	39	0
82	124844	40	0
82	128030	41	0
82	131283	42	0
82	134459	43	0
82	137635	44	0
82	140811	45	0
82	144416	46	0
82	147582	47	0
82	150748	48	0
82	153914	49	0
82	157080	50	0
82	160246	51	0
82	163412	52	0
82	166578	53	0
82	169744	54	0
82	172910	55	0
82	176076	56	0
82	179242	57	0
82	182408	58	0
82	185574	59	0
82	188740	60	0
82	191906	61	0
82	195072	62	0
82	198238	63	0
82	201404	64	0
82	204570	65	0
82	207736	66	0
82	210902	67	0
82	214068	68	0
82	217234	69	0
82	220400	70	0
82	223566	71	0
82	226732	72	0
82	229898	73	0
82	233064	74	0
82	236230	75	0
82	239396	76	0
82	242562	77	0
82	245728	78	0
82	248894	79	0
82	252060	80	0
82	255226	81	0
82	258392	82	0
82	261558	83	0
82	264724	84	0
82	267890	85	0
82	271056	86	0
82	274222	87	0
82	277388	88	0
82	280554	89	0
82	283720	90	0
82	286886	91	0
82	290052	92	0
82	293218	93	0
82	296384	94	0
82	299550	95	0
82	302716	96	0
82	305882	97	0
82	309048	98	0
82	312214	99	0
82	315380	100	0
83	2961	2	5
83	6127	3	5
83	9293	4	5
83	12459	5	5
83	15625	6	5
83	18791	7	5
83	21957	8	5
83	25123	9	5
83	28290	10	5
83	31556	11	5
83	34772	12	5
83	37988	13	5
83	41204	14	5
83	44420	15	5
83	47636	16	5
83	50852	17	5
83	54068	18	5
83	57284	19	5
83	60500	20	5
83	63716	21	5
83	66932	22	5
83	70148	23	5
83	73364	24	5
83	76580	25	5
83	79796	26	5
83	83012	27	5
83	86228	28	5
83	89444	29	5
83	92727	30	5
83	95933	31	5
83	99139	32	5
83	102345	33	5
83	105620	34	5
83	108816	35	5
83	112012	36	5
83	115208	37	5
83	118473	38	5
83	121659	39	5
83	124845	40	5
83	128031	41	5
83	131284	42	5
83	134460	43	5
83	137636	44	5
83	140812	45	5
83	144417	46	5
83	147583	47	5
83	150749	48	5
83	153915	49	5
83	157081	50	5
83	160247	51	5
83	163413	52	5
83	166579	53	5
83	169745	54	5
83	172911	55	5
83	176077	56	5
83	179243	57	5
83	182409	58	5
83	185575	59	5
83	188741	60	5
83	191907	61	5
83	195073	62	5
83	198239	63	5
83	201405	64	5
83	204571	65	5
83	207737	66	5
83	210903	67	5
83	214069	68	5
83	217235	69	5
83	220401	70	5
83	223567	71	5
83	226733	72	5
83	229899	73	5
83	233065	74	5
83	236231	75	5
83	239397	76	5
83	242563	77	5
83	245729	78	5
83	248895	79	5
83	252061	80	5
83	255227	81	5
83	258393	82	5
83	261559	83	5
83	264725	84	5
83	267891	85	5
83	271057	86	5
83	274223	87	5
83	277389	88	5
83	280555	89	5
83	283721	90	5
83	286887	91	5
83	290053	92	5
83	293219	93	5
83	296385	94	5
83	299551	95	5
83	302717	96	5
83	305883	97	5
83	309049	98	5
83	312215	99	5
83	315381	100	5
84	2961	2	0.016857
84	6127	3	0.01873
84	9293	4	0.01873
84	12459	5	0.01873
84	15625	6	0.01873
84	18791	7	0.01873
84	21957	8	0.01873
84	25123	9	0.01873
84	28290	10	0.01873
84	31556	11	0.018778
84	34772	12	0.01873
84	37988	13	0.01873
84	41204	14	0.01873
84	44420	15	0.01873
84	47636	16	0.01873
84	50852	17	0.01873
84	54068	18	0.01873
84	57284	19	0.01873
84	60500	20	0.01873
84	63716	21	0.01873
84	66932	22	0.01873
84	70148	23	0.01873
84	73364	24	0.01873
84	76580	25	0.01873
84	79796	26	0.01873
84	83012	27	0.01873
84	86228	28	0.01873
84	89444	29	0.01873
84	92727	30	0.018842
84	95933	31	0.01873
84	99139	32	0.01873
84	102345	33	0.01873
84	105620	34	0.018842
84	108816	35	0.01873
84	112012	36	0.01873
84	115208	37	0.01873
84	118473	38	0.018842
84	121659	39	0.01873
84	124845	40	0.01873
84	128031	41	0.01873
84	131284	42	0.018842
84	134460	43	0.01873
84	137636	44	0.01873
84	140812	45	0.01873
84	144417	46	0.019467231946
84	147583	47	0.01873
84	150749	48	0.01873
84	153915	49	0.01873
84	157081	50	0.01873
84	160247	51	0.01873
84	163413	52	0.01873
84	166579	53	0.01873
84	169745	54	0.01873
84	172911	55	0.01873
84	176077	56	0.01873
84	179243	57	0.01873
84	182409	58	0.01873
84	185575	59	0.01873
84	188741	60	0.01873
84	191907	61	0.01873
84	195073	62	0.01873
84	198239	63	0.01873
84	201405	64	0.01873
84	204571	65	0.01873
84	207737	66	0.01873
84	210903	67	0.01873
84	214069	68	0.01873
84	217235	69	0.01873
84	220401	70	0.01873
84	223567	71	0.01873
84	226733	72	0.01873
84	229899	73	0.01873
84	233065	74	0.01873
84	236231	75	0.01873
84	239397	76	0.01873
84	242563	77	0.01873
84	245729	78	0.01873
84	248895	79	0.01873
84	252061	80	0.01873
84	255227	81	0.01873
84	258393	82	0.01873
84	261559	83	0.01873
84	264725	84	0.01873
84	267891	85	0.01873
84	271057	86	0.01873
84	274223	87	0.01873
84	277389	88	0.01873
84	280555	89	0.01873
84	283721	90	0.01873
84	286887	91	0.01873
84	290053	92	0.01873
84	293219	93	0.01873
84	296385	94	0.01873
84	299551	95	0.01873
84	302717	96	0.01873
84	305883	97	0.01873
84	309049	98	0.01873
84	312215	99	0.01873
84	315381	100	0.01873
85	2961	2	0
85	6127	3	0
85	9293	4	0
85	12459	5	0
85	15625	6	0
85	18791	7	0
85	21957	8	0
85	25123	9	0
85	28290	10	0
85	31556	11	0
85	34772	12	0
85	37988	13	0
85	41204	14	0
85	44420	15	0
85	47636	16	0
85	50852	17	0
85	54068	18	0
85	57284	19	0
85	60500	20	0
85	63716	21	0
85	66932	22	0
85	70148	23	0
85	73364	24	0
85	76580	25	0
85	79796	26	0
85	83012	27	0
85	86228	28	0
85	89444	29	0
85	92727	30	0
85	95933	31	0
85	99139	32	0
85	102345	33	0
85	105620	34	0
85	108816	35	0
85	112012	36	0
85	115208	37	0
85	118473	38	0
85	121659	39	0
85	124845	40	0
85	128031	41	0
85	131284	42	0
85	134460	43	0
85	137636	44	0
85	140812	45	0
85	144417	46	0
85	147583	47	0
85	150749	48	0
85	153915	49	0
85	157081	50	0
85	160247	51	0
85	163413	52	0
85	166579	53	0
85	169745	54	0
85	172911	55	0
85	176077	56	0
85	179243	57	0
85	182409	58	0
85	185575	59	0
85	188741	60	0
85	191907	61	0
85	195073	62	0
85	198239	63	0
85	201405	64	0
85	204571	65	0
85	207737	66	0
85	210903	67	0
85	214069	68	0
85	217235	69	0
85	220401	70	0
85	223567	71	0
85	226733	72	0
85	229899	73	0
85	233065	74	0
85	236231	75	0
85	239397	76	0
85	242563	77	0
85	245729	78	0
85	248895	79	0
85	252061	80	0
85	255227	81	0
85	258393	82	0
85	261559	83	0
85	264725	84	0
85	267891	85	0
85	271057	86	0
85	274223	87	0
85	277389	88	0
85	280555	89	0
85	283721	90	0
85	286887	91	0
85	290053	92	0
85	293219	93	0
85	296385	94	0
85	299551	95	0
85	302717	96	0
85	305883	97	0
85	309049	98	0
85	312215	99	0
85	315381	100	0

