version 3
run BreakRanksNoGui-107-20240710-13:40:40-257812
attr configname BreakRanksNoGui
attr datetime 20240710-13:40:40
attr datetimef 20240710-134040
attr experiment BreakRanksNoGui
attr inifile omnetpp.ini
attr iterationvars "$nCars=2, $platoonSize=2, $nLanes=1, $ploegH=0.5, $controller=1, $headway=0.1, $leaderHeadway=1.2, $leaderSpeed=110, $breakRanksSafetyDistance=5, $minSpeed=100, $maxSpeed=120, $beaconInterval=0.1, $priority=4, $packetSize=200, $sController=\"CACC\", $0=2, $1=0"
attr iterationvarsd nCars=2/platoonSize=2/nLanes=1/ploegH=0.5/controller=1/headway=0.1/leaderHeadway=1.2/leaderSpeed=110/breakRanksSafetyDistance=5/minSpeed=100/maxSpeed=120/beaconInterval=0.1/priority=4/packetSize=200/sController=CACC/2/0
attr iterationvarsf nCars=2,platoonSize=2,nLanes=1,ploegH=0.5,controller=1,headway=0.1,leaderHeadway=1.2,leaderSpeed=110,breakRanksSafetyDistance=5,minSpeed=100,maxSpeed=120,beaconInterval=0.1,priority=4,packetSize=200,sController=CACC,2,0-
attr measurement "$nCars=2, $platoonSize=2, $nLanes=1, $ploegH=0.5, $controller=1, $headway=0.1, $leaderHeadway=1.2, $leaderSpeed=110, $breakRanksSafetyDistance=5, $minSpeed=100, $maxSpeed=120, $beaconInterval=0.1, $priority=4, $packetSize=200, $sController=\"CACC\", $0=2, $1=0"
attr network Highway
attr processid 257812
attr repetition 7
attr replication #7
attr resultdir results
attr runnumber 107
attr seedset 7
itervar beaconInterval 0.1
itervar breakRanksSafetyDistance 5
itervar controller 1
itervar headway 0.1
itervar leaderHeadway 1.2
itervar leaderSpeed 110
itervar maxSpeed 120
itervar minSpeed 100
itervar nCars 2
itervar nLanes 1
itervar packetSize 200
itervar platoonSize 2
itervar ploegH 0.5
itervar priority 4
itervar sController "\"CACC\""
config image-path ../../../veins/images
config repeat 10
config extends BreakRanks
config *.manager.command "\"sumo\""
config *.manager.ignoreGuiCommands true
config output-vector-file "results/BreakRanks_1_0.1_110_5_2 /result_7.vec"
config output-scalar-file "results/BreakRanks_1_0.1_110_5_2 /result_7.sca"
config extends Platooning
config *.node[*].scenario_type "\"BreakRanksScenario\""
config *.manager.command "\"sumo-gui\""
config *.node[*].scenario_type "\"SimpleScenario\""
config cmdenv-express-mode true
config cmdenv-autoflush true
config cmdenv-status-frequency 15s
config num-rngs 6
config network Highway
config debug-on-errors true
config print-undisposed true
config *.playgroundSizeX 65000m
config *.playgroundSizeY 25000m
config *.playgroundSizeZ 50m
config sim-time-limit "100 s"
config *.annotations.draw false
config *.obstacles.debug false
config *.world.useTorus false
config *.world.use2D false
config *.manager.updateInterval 0.01s
config *.manager.host "\"localhost\""
config *.manager.moduleType "\"org.car2x.plexe.PlatoonCar\""
config *.manager.moduleName "\"node\""
config *.manager.moduleDisplayString "\"\""
config *.manager.autoShutdown true
config *.manager.margin 25
config *.connectionManager.sendDirect true
config *.connectionManager.maxInterfDist 2600m
config *.connectionManager.drawMaxIntfDist false
config *.**.nic.mac1609_4.useServiceChannel false
config *.**.nic.mac1609_4.txPower 100mW
config *.**.nic.mac1609_4.bitrate 6Mbps
config *.**.nic.mac1609_4.useAcks true
config *.**.nic.mac1609_4.ackErrorRate 0.0
config *.**.nic.mac1609_4.frameErrorRate 0.0
config *.**.nic.phy80211p.minPowerLevel -94dBm
config *.**.nic.phy80211p.maxTXPower 100mW
config *.**.nic.phy80211p.useNoiseFloor true
config *.**.nic.phy80211p.noiseFloor -95dBm
config *.**.nic.phy80211p.decider "xmldoc(\"config.xml\")"
config *.**.nic.phy80211p.analogueModels "xmldoc(\"config.xml\")"
config *.**.nic.phy80211p.usePropagationDelay true
config *.node[*].mobility.x 0
config *.node[*].mobility.y 0
config *.node[*].mobility.z 1.895
config seed-set 7
config **.seed 7
config *.node[*].prot.rng-0 2
config *.node[*].appl.rng-0 3
config *.node[*].scenario.rng-0 4
config **.traffic.rng-0 5
config *.manager.configFile "\"./sumocfg/freeway.sumo.cfg\""
config *.manager.launchConfig "xmldoc(\"./sumocfg/freeway.launchd.xml\")"
config **.numberOfCars 2
config **.numberOfCarsPerPlatoon 2
config **.numberOfLanes 1
config *.node[*].helper_type "\"PositionHelper\""
config *.node[*].scenario.caccC1 0.5
config *.node[*].scenario.caccXi 1
config *.node[*].scenario.caccOmegaN "0.2 Hz"
config *.node[*].scenario.caccSpacing "2 m"
config *.node[*].scenario.engineTau "0.5 s"
config *.node[*].scenario.ploegH 0.5s
config *.node[*].scenario.ploegKp 0.2
config *.node[*].scenario.ploegKd 0.7
config *.node[*].scenario.useRealisticEngine false
config *.node[*].scenario.useControllerAcceleration true
config *.node[*].scenario.nLanes 1
config **.numericController 1
config **.headway 0.1s
config *.node[*].scenario.accHeadway 0.1s
config *.node[*].scenario.leaderHeadway 1.2s
config *.node[*].scenario.leaderSpeed 110kmph
config *.node[*].appl_type "\"SimplePlatooningApp\""
config *.node[*].appl.*.scalar-recording true
config *.node[*].appl.*.vector-recording true
config *.node[0].appl.breakRanksSafetyDistance 5m
config *.node[*].appl.minSpeed 100kmph
config *.node[*].appl.maxSpeed 120kmph
config *.node[*].protocol_type "\"SimplePlatooningBeaconing\""
config *.node[*].prot.*.scalar-recording true
config *.node[*].prot.*.vector-recording true
config *.node[*].prot.beaconingInterval 0.1s
config *.node[*].prot.priority 4
config *.node[*].prot.packetSize 200
config **.traffic_type "\"PlatoonsTrafficManager\""
config **.traffic.platoonInsertTime "1 s"
config **.traffic.platoonInsertSpeed 110kmph
config **.traffic.nCars 2
config **.traffic.platoonSize 2
config **.traffic.nLanes 1
config **.traffic.platooningVType "\"vtypeauto\""
config **.traffic.controller "\"CACC\""
config **.traffic.platoonInsertDistance 2m
config **.traffic.platoonInsertHeadway 0s
config **.traffic.platoonLeaderHeadway 1.2s
config **.scalar-recording false
config **.vector-recording false

vector 0 Highway.node[0].appl distance ETV
vector 1 Highway.node[0].appl relativeSpeed ETV
vector 2 Highway.node[0].appl nodeId ETV
vector 3 Highway.node[0].appl acceleration ETV
vector 4 Highway.node[0].appl controllerAcceleration ETV
vector 5 Highway.node[0].appl speed ETV
vector 6 Highway.node[0].appl posx ETV
vector 7 Highway.node[0].appl posy ETV
vector 8 Highway.node[1].appl distance ETV
vector 9 Highway.node[1].appl relativeSpeed ETV
vector 10 Highway.node[1].appl nodeId ETV
vector 11 Highway.node[1].appl acceleration ETV
vector 12 Highway.node[1].appl controllerAcceleration ETV
vector 13 Highway.node[1].appl speed ETV
vector 14 Highway.node[1].appl posx ETV
vector 15 Highway.node[1].appl posy ETV
vector 16 Highway.node[1].prot leaderDelay ETV
vector 17 Highway.node[1].prot leaderDelayId ETV
vector 18 Highway.node[1].prot frontDelay ETV
vector 19 Highway.node[1].prot frontDelayId ETV
vector 20 Highway.node[0].prot nodeId ETV
vector 21 Highway.node[0].prot busyTime ETV
vector 22 Highway.node[0].prot collisions ETV
vector 23 Highway.node[1].prot nodeId ETV
vector 24 Highway.node[1].prot busyTime ETV
vector 25 Highway.node[1].prot collisions ETV
0	113	1.11	-1
0	161	1.21	-1
0	209	1.31	-1
0	257	1.41	-1
0	305	1.51	-1
0	353	1.61	-1
0	401	1.71	-1
0	449	1.81	-1
0	497	1.91	-1
0	547	2.01	-1
0	595	2.11	-1
0	643	2.21	-1
0	691	2.31	-1
0	739	2.41	-1
0	787	2.51	-1
0	835	2.61	-1
0	883	2.71	-1
0	931	2.81	-1
0	979	2.91	-1
0	1029	3.01	-1
0	1077	3.11	-1
0	1125	3.21	-1
0	1173	3.31	-1
0	1221	3.41	-1
0	1269	3.51	-1
0	1317	3.61	-1
0	1365	3.71	-1
0	1413	3.81	-1
0	1461	3.91	-1
0	1511	4.01	-1
0	1559	4.11	-1
0	1607	4.21	-1
0	1655	4.31	-1
0	1703	4.41	-1
0	1751	4.51	-1
0	1799	4.61	-1
0	1847	4.71	-1
0	1895	4.81	-1
0	1943	4.91	-1
0	1993	5.01	-1
0	2041	5.11	-1
0	2089	5.21	-1
0	2137	5.31	-1
0	2185	5.41	-1
0	2233	5.51	-1
0	2281	5.61	-1
0	2329	5.71	-1
0	2377	5.81	-1
0	2425	5.91	-1
0	2475	6.01	-1
0	2523	6.11	-1
0	2571	6.21	-1
0	2619	6.31	-1
0	2667	6.41	-1
0	2715	6.51	-1
0	2763	6.61	-1
0	2811	6.71	-1
0	2859	6.81	-1
0	2907	6.91	-1
0	2957	7.01	-1
0	3005	7.11	-1
0	3053	7.21	-1
0	3101	7.31	-1
0	3149	7.41	-1
0	3197	7.51	-1
0	3245	7.61	-1
0	3293	7.71	-1
0	3341	7.81	-1
0	3389	7.91	-1
0	3439	8.01	-1
0	3487	8.11	-1
0	3535	8.21	-1
0	3583	8.31	-1
0	3631	8.41	-1
0	3679	8.51	-1
0	3727	8.61	-1
0	3775	8.71	-1
0	3823	8.81	-1
0	3871	8.91	-1
0	3921	9.01	-1
0	3969	9.11	-1
0	4017	9.21	-1
0	4065	9.31	-1
0	4113	9.41	-1
0	4161	9.51	-1
0	4209	9.61	-1
0	4257	9.71	-1
0	4305	9.81	-1
0	4353	9.91	-1
0	4423	10.01	-1
0	4472	10.11	-1
0	4521	10.21	-1
0	4570	10.31	-1
0	4619	10.41	-1
0	4668	10.51	-1
0	4717	10.61	-1
0	4766	10.71	-1
0	4815	10.81	-1
0	4864	10.91	-1
0	4915	11.01	-1
0	4964	11.11	-1
0	5013	11.21	-1
0	5062	11.31	-1
0	5111	11.41	-1
0	5160	11.51	-1
0	5209	11.61	-1
0	5258	11.71	-1
0	5307	11.81	-1
0	5356	11.91	-1
0	5407	12.01	-1
0	5456	12.11	-1
0	5505	12.21	-1
0	5554	12.31	-1
0	5603	12.41	-1
0	5652	12.51	-1
0	5701	12.61	-1
0	5750	12.71	-1
0	5799	12.81	-1
0	5848	12.91	-1
0	5899	13.01	-1
0	5948	13.11	-1
0	5997	13.21	-1
0	6046	13.31	-1
0	6095	13.41	-1
0	6144	13.51	-1
0	6193	13.61	-1
0	6242	13.71	-1
0	6291	13.81	-1
0	6340	13.91	-1
0	6391	14.01	-1
0	6440	14.11	-1
0	6489	14.21	-1
0	6538	14.31	-1
0	6587	14.41	-1
0	6636	14.51	-1
0	6685	14.61	-1
0	6734	14.71	-1
0	6783	14.81	-1
0	6832	14.91	-1
0	6883	15.01	-1
0	6932	15.11	-1
0	6981	15.21	-1
0	7030	15.31	-1
0	7079	15.41	-1
0	7128	15.51	-1
0	7177	15.61	-1
0	7226	15.71	-1
0	7275	15.81	-1
0	7324	15.91	-1
0	7375	16.01	-1
0	7424	16.11	-1
0	7473	16.21	-1
0	7522	16.31	-1
0	7571	16.41	-1
0	7620	16.51	-1
0	7669	16.61	-1
0	7718	16.71	-1
0	7767	16.81	-1
0	7816	16.91	-1
0	7867	17.01	-1
0	7916	17.11	-1
0	7965	17.21	-1
0	8014	17.31	-1
0	8063	17.41	-1
0	8112	17.51	-1
0	8161	17.61	-1
0	8210	17.71	-1
0	8259	17.81	-1
0	8308	17.91	-1
0	8359	18.01	-1
0	8408	18.11	-1
0	8457	18.21	-1
0	8506	18.31	-1
0	8555	18.41	-1
0	8604	18.51	-1
0	8653	18.61	-1
0	8702	18.71	-1
0	8751	18.81	-1
0	8800	18.91	-1
0	8851	19.01	-1
0	8900	19.11	-1
0	8949	19.21	-1
0	8998	19.31	-1
0	9047	19.41	-1
0	9096	19.51	-1
0	9145	19.61	-1
0	9194	19.71	-1
0	9243	19.81	-1
0	9292	19.91	-1
0	9343	20.01	-1
0	9392	20.11	-1
0	9441	20.21	-1
0	9490	20.31	-1
0	9539	20.41	-1
0	9588	20.51	-1
0	9637	20.61	-1
0	9686	20.71	-1
0	9735	20.81	-1
0	9784	20.91	-1
0	9835	21.01	-1
0	9884	21.11	-1
0	9933	21.21	-1
0	9982	21.31	-1
0	10031	21.41	-1
0	10080	21.51	-1
0	10129	21.61	-1
0	10178	21.71	-1
0	10227	21.81	-1
0	10276	21.91	-1
0	10327	22.01	-1
0	10376	22.11	-1
0	10425	22.21	-1
0	10474	22.31	-1
0	10523	22.41	-1
0	10572	22.51	-1
0	10621	22.61	-1
0	10670	22.71	-1
0	10719	22.81	-1
0	10768	22.91	-1
0	10819	23.01	-1
0	10868	23.11	-1
0	10917	23.21	-1
0	10966	23.31	-1
0	11015	23.41	-1
0	11064	23.51	-1
0	11113	23.61	-1
0	11162	23.71	-1
0	11211	23.81	-1
0	11260	23.91	-1
0	11311	24.01	-1
0	11360	24.11	-1
0	11409	24.21	-1
0	11458	24.31	-1
0	11507	24.41	-1
0	11556	24.51	-1
0	11605	24.61	-1
0	11654	24.71	-1
0	11703	24.81	-1
0	11752	24.91	-1
0	11803	25.01	-1
0	11852	25.11	-1
0	11901	25.21	-1
0	11950	25.31	-1
0	11999	25.41	-1
0	12048	25.51	-1
0	12097	25.61	-1
0	12146	25.71	-1
0	12195	25.81	-1
0	12244	25.91	-1
0	12295	26.01	-1
0	12344	26.11	-1
0	12393	26.21	-1
0	12442	26.31	-1
0	12491	26.41	-1
0	12540	26.51	-1
0	12589	26.61	-1
0	12638	26.71	-1
0	12687	26.81	-1
0	12736	26.91	-1
0	12787	27.01	-1
0	12836	27.11	-1
0	12885	27.21	-1
0	12934	27.31	-1
0	12983	27.41	-1
0	13032	27.51	-1
0	13081	27.61	-1
0	13130	27.71	-1
0	13179	27.81	-1
0	13228	27.91	-1
0	13279	28.01	-1
0	13328	28.11	-1
0	13377	28.21	-1
0	13426	28.31	-1
0	13475	28.41	-1
0	13524	28.51	-1
0	13573	28.61	-1
0	13622	28.71	-1
0	13671	28.81	-1
0	13720	28.91	-1
0	13771	29.01	-1
0	13820	29.11	-1
0	13869	29.21	-1
0	13918	29.31	-1
0	13967	29.41	-1
0	14016	29.51	-1
0	14065	29.61	-1
0	14114	29.71	-1
0	14163	29.81	-1
0	14212	29.91	-1
0	14263	30.01	-1
0	14312	30.11	-1
0	14361	30.21	-1
0	14410	30.31	-1
0	14459	30.41	-1
0	14508	30.51	-1
0	14557	30.61	-1
0	14606	30.71	-1
0	14655	30.81	-1
0	14704	30.91	-1
0	14755	31.01	-1
0	14804	31.11	-1
0	14853	31.21	-1
0	14902	31.31	-1
0	14951	31.41	-1
0	15000	31.51	-1
0	15049	31.61	-1
0	15098	31.71	-1
0	15147	31.81	-1
0	15196	31.91	-1
0	15247	32.01	-1
0	15296	32.11	-1
0	15345	32.21	-1
0	15394	32.31	-1
0	15443	32.41	-1
0	15492	32.51	-1
0	15541	32.61	-1
0	15590	32.71	-1
0	15639	32.81	-1
0	15688	32.91	-1
0	15739	33.01	-1
0	15788	33.11	-1
0	15837	33.21	-1
0	15886	33.31	-1
0	15935	33.41	-1
0	15984	33.51	-1
0	16033	33.61	-1
0	16082	33.71	-1
0	16131	33.81	-1
0	16180	33.91	-1
0	16231	34.01	-1
0	16280	34.11	-1
0	16329	34.21	-1
0	16378	34.31	-1
0	16427	34.41	-1
0	16476	34.51	-1
0	16525	34.61	-1
0	16574	34.71	-1
0	16623	34.81	-1
0	16672	34.91	-1
0	16723	35.01	-1
0	16772	35.11	-1
0	16821	35.21	-1
0	16870	35.31	-1
0	16919	35.41	-1
0	16968	35.51	-1
0	17017	35.61	-1
0	17066	35.71	-1
0	17115	35.81	-1
0	17164	35.91	-1
0	17215	36.01	-1
0	17264	36.11	-1
0	17313	36.21	-1
0	17362	36.31	-1
0	17477	36.41	-1
0	17525	36.51	-1
0	17573	36.61	-1
0	17621	36.71	-1
0	17669	36.81	-1
0	17717	36.91	-1
0	17767	37.01	-1
0	17815	37.11	-1
0	17863	37.21	-1
0	17911	37.31	-1
0	17959	37.41	-1
0	18007	37.51	-1
0	18055	37.61	-1
0	18103	37.71	-1
0	18151	37.81	-1
0	18199	37.91	-1
0	18249	38.01	-1
0	18297	38.11	-1
0	18345	38.21	-1
0	18393	38.31	-1
0	18441	38.41	-1
0	18489	38.51	-1
0	18537	38.61	-1
0	18585	38.71	-1
0	18633	38.81	-1
0	18681	38.91	-1
0	18731	39.01	-1
0	18779	39.11	-1
0	18827	39.21	-1
0	18875	39.31	-1
0	18923	39.41	-1
0	18971	39.51	-1
0	19019	39.61	-1
0	19067	39.71	-1
0	19115	39.81	-1
0	19163	39.91	-1
0	19213	40.01	-1
0	19261	40.11	-1
0	19309	40.21	-1
0	19357	40.31	-1
0	19405	40.41	-1
0	19453	40.51	-1
0	19501	40.61	-1
0	19549	40.71	-1
0	19597	40.81	-1
0	19645	40.91	-1
0	19695	41.01	-1
0	19743	41.11	-1
0	19791	41.21	-1
0	19839	41.31	-1
0	19887	41.41	-1
0	19935	41.51	-1
0	19983	41.61	-1
0	20031	41.71	-1
0	20079	41.81	-1
0	20127	41.91	-1
0	20177	42.01	-1
0	20225	42.11	-1
0	20273	42.21	-1
0	20321	42.31	-1
0	20369	42.41	-1
0	20417	42.51	-1
0	20465	42.61	-1
0	20513	42.71	-1
0	20561	42.81	-1
0	20609	42.91	-1
0	20659	43.01	-1
0	20707	43.11	-1
0	20755	43.21	-1
0	20803	43.31	-1
0	20851	43.41	-1
0	20899	43.51	-1
0	20947	43.61	-1
0	20995	43.71	-1
0	21043	43.81	-1
0	21091	43.91	-1
0	21141	44.01	-1
0	21189	44.11	-1
0	21237	44.21	-1
0	21285	44.31	-1
0	21333	44.41	-1
0	21381	44.51	-1
0	21429	44.61	-1
0	21477	44.71	-1
0	21525	44.81	-1
0	21573	44.91	-1
0	21623	45.01	-1
0	21671	45.11	-1
0	21719	45.21	-1
0	21767	45.31	-1
0	21815	45.41	-1
0	21863	45.51	-1
0	21911	45.61	-1
0	21959	45.71	-1
0	22007	45.81	-1
0	22055	45.91	-1
0	22105	46.01	-1
0	22153	46.11	-1
0	22201	46.21	-1
0	22249	46.31	-1
0	22297	46.41	-1
0	22345	46.51	-1
0	22393	46.61	-1
0	22441	46.71	-1
0	22489	46.81	-1
0	22537	46.91	-1
0	22587	47.01	-1
0	22635	47.11	-1
0	22683	47.21	-1
0	22731	47.31	-1
0	22779	47.41	-1
0	22827	47.51	-1
0	22875	47.61	-1
0	22923	47.71	-1
0	22971	47.81	-1
0	23019	47.91	-1
0	23069	48.01	-1
0	23117	48.11	-1
0	23165	48.21	-1
0	23213	48.31	-1
0	23261	48.41	-1
0	23309	48.51	-1
0	23357	48.61	-1
0	23405	48.71	-1
0	23453	48.81	-1
0	23501	48.91	-1
0	23551	49.01	-1
0	23599	49.11	-1
0	23647	49.21	-1
0	23695	49.31	-1
0	23743	49.41	-1
0	23791	49.51	-1
0	23839	49.61	-1
0	23887	49.71	-1
0	23935	49.81	-1
0	23983	49.91	-1
0	24033	50.01	-1
0	24081	50.11	-1
0	24129	50.21	-1
0	24177	50.31	-1
0	24225	50.41	-1
0	24273	50.51	-1
0	24321	50.61	-1
0	24369	50.71	-1
0	24417	50.81	-1
0	24465	50.91	-1
0	24515	51.01	-1
0	24563	51.11	-1
0	24611	51.21	-1
0	24659	51.31	-1
0	24707	51.41	-1
0	24755	51.51	-1
0	24803	51.61	-1
0	24851	51.71	-1
0	24899	51.81	-1
0	24947	51.91	-1
0	24997	52.01	-1
0	25045	52.11	-1
0	25093	52.21	-1
0	25141	52.31	-1
0	25189	52.41	-1
0	25237	52.51	-1
0	25285	52.61	-1
0	25333	52.71	-1
0	25381	52.81	-1
0	25429	52.91	-1
0	25479	53.01	-1
0	25527	53.11	-1
0	25575	53.21	-1
0	25623	53.31	-1
0	25671	53.41	-1
0	25719	53.51	-1
0	25767	53.61	-1
0	25815	53.71	-1
0	25863	53.81	-1
0	25911	53.91	-1
0	25961	54.01	-1
0	26009	54.11	-1
0	26057	54.21	-1
0	26105	54.31	-1
0	26153	54.41	-1
0	26201	54.51	-1
0	26249	54.61	-1
0	26297	54.71	-1
0	26345	54.81	-1
0	26393	54.91	-1
0	26443	55.01	-1
0	26491	55.11	-1
0	26539	55.21	-1
0	26587	55.31	-1
0	26635	55.41	-1
0	26683	55.51	-1
0	26731	55.61	-1
0	26779	55.71	-1
0	26827	55.81	-1
0	26875	55.91	-1
0	26925	56.01	-1
0	26973	56.11	-1
0	27021	56.21	-1
0	27069	56.31	-1
0	27117	56.41	-1
0	27165	56.51	-1
0	27213	56.61	-1
0	27261	56.71	-1
0	27309	56.81	-1
0	27357	56.91	-1
0	27407	57.01	-1
0	27455	57.11	-1
0	27503	57.21	-1
0	27551	57.31	-1
0	27599	57.41	-1
0	27647	57.51	-1
0	27695	57.61	-1
0	27743	57.71	-1
0	27791	57.81	-1
0	27839	57.91	-1
0	27889	58.01	-1
0	27937	58.11	-1
0	27985	58.21	-1
0	28033	58.31	-1
0	28081	58.41	-1
0	28129	58.51	-1
0	28177	58.61	-1
0	28225	58.71	-1
0	28273	58.81	-1
0	28321	58.91	-1
0	28371	59.01	-1
0	28419	59.11	-1
0	28467	59.21	-1
0	28515	59.31	-1
0	28563	59.41	-1
0	28611	59.51	-1
0	28659	59.61	-1
0	28707	59.71	-1
0	28755	59.81	-1
0	28803	59.91	-1
0	28853	60.01	-1
0	28901	60.11	-1
0	28949	60.21	-1
0	28997	60.31	-1
0	29045	60.41	-1
0	29093	60.51	-1
0	29141	60.61	-1
0	29189	60.71	-1
0	29237	60.81	-1
0	29285	60.91	-1
0	29335	61.01	-1
0	29383	61.11	-1
0	29431	61.21	-1
0	29479	61.31	-1
0	29527	61.41	-1
0	29575	61.51	-1
0	29623	61.61	-1
0	29671	61.71	-1
0	29719	61.81	-1
0	29767	61.91	-1
0	29817	62.01	-1
0	29865	62.11	-1
0	29913	62.21	-1
0	29961	62.31	-1
0	30009	62.41	-1
0	30057	62.51	-1
0	30105	62.61	-1
0	30153	62.71	-1
0	30201	62.81	-1
0	30249	62.91	-1
0	30299	63.01	-1
0	30347	63.11	-1
0	30395	63.21	-1
0	30443	63.31	-1
0	30491	63.41	-1
0	30539	63.51	-1
0	30587	63.61	-1
0	30635	63.71	-1
0	30683	63.81	-1
0	30731	63.91	-1
0	30781	64.01	-1
0	30829	64.11	-1
0	30877	64.21	-1
0	30925	64.31	-1
0	30973	64.41	-1
0	31021	64.51	-1
0	31069	64.61	-1
0	31117	64.71	-1
0	31165	64.81	-1
0	31213	64.91	-1
0	31263	65.01	-1
0	31311	65.11	-1
0	31359	65.21	-1
0	31407	65.31	-1
0	31455	65.41	-1
0	31503	65.51	-1
0	31551	65.61	-1
0	31599	65.71	-1
0	31647	65.81	-1
0	31695	65.91	-1
0	31745	66.01	-1
0	31793	66.11	-1
0	31841	66.21	-1
0	31889	66.31	-1
0	31937	66.41	-1
0	31985	66.51	-1
0	32033	66.61	-1
0	32081	66.71	-1
0	32129	66.81	-1
0	32177	66.91	-1
0	32227	67.01	-1
0	32275	67.11	-1
0	32323	67.21	-1
0	32371	67.31	-1
0	32419	67.41	-1
0	32467	67.51	-1
0	32515	67.61	-1
0	32563	67.71	-1
0	32611	67.81	-1
0	32659	67.91	-1
0	32709	68.01	-1
0	32757	68.11	-1
0	32805	68.21	-1
0	32853	68.31	-1
0	32901	68.41	-1
0	32949	68.51	-1
0	32997	68.61	-1
0	33045	68.71	-1
0	33093	68.81	-1
0	33141	68.91	-1
0	33191	69.01	-1
0	33239	69.11	-1
0	33287	69.21	-1
0	33335	69.31	-1
0	33383	69.41	-1
0	33431	69.51	-1
0	33479	69.61	-1
0	33527	69.71	-1
0	33575	69.81	-1
0	33623	69.91	-1
0	33673	70.01	-1
0	33721	70.11	-1
0	33769	70.21	-1
0	33817	70.31	-1
0	33865	70.41	-1
0	33913	70.51	-1
0	33961	70.61	-1
0	34009	70.71	-1
0	34057	70.81	-1
0	34105	70.91	-1
0	34155	71.01	-1
0	34203	71.11	-1
0	34251	71.21	-1
0	34299	71.31	-1
0	34347	71.41	-1
0	34395	71.51	-1
0	34443	71.61	-1
0	34491	71.71	-1
0	34539	71.81	-1
0	34587	71.91	-1
0	34637	72.01	-1
0	34685	72.11	-1
0	34733	72.21	-1
0	34781	72.31	-1
0	34829	72.41	-1
0	34877	72.51	-1
0	34925	72.61	-1
0	34973	72.71	-1
0	35021	72.81	-1
0	35069	72.91	-1
0	35119	73.01	-1
0	35167	73.11	-1
0	35215	73.21	-1
0	35263	73.31	-1
0	35311	73.41	-1
0	35359	73.51	-1
0	35407	73.61	-1
0	35455	73.71	-1
0	35503	73.81	-1
0	35551	73.91	-1
0	35601	74.01	-1
0	35649	74.11	-1
0	35697	74.21	-1
0	35745	74.31	-1
0	35793	74.41	-1
0	35841	74.51	-1
0	35889	74.61	-1
0	35937	74.71	-1
0	35985	74.81	-1
0	36033	74.91	-1
0	36083	75.01	-1
0	36131	75.11	-1
0	36179	75.21	-1
0	36227	75.31	-1
0	36275	75.41	-1
0	36323	75.51	-1
0	36371	75.61	-1
0	36419	75.71	-1
0	36467	75.81	-1
0	36515	75.91	-1
0	36565	76.01	-1
0	36613	76.11	-1
0	36661	76.21	-1
0	36709	76.31	-1
0	36757	76.41	-1
0	36805	76.51	-1
0	36853	76.61	-1
0	36901	76.71	-1
0	36949	76.81	-1
0	36997	76.91	-1
0	37047	77.01	-1
0	37095	77.11	-1
0	37143	77.21	-1
0	37191	77.31	-1
0	37239	77.41	-1
0	37287	77.51	-1
0	37335	77.61	-1
0	37383	77.71	-1
0	37431	77.81	-1
0	37479	77.91	-1
0	37529	78.01	-1
0	37577	78.11	-1
0	37625	78.21	-1
0	37673	78.31	-1
0	37721	78.41	-1
0	37769	78.51	-1
0	37817	78.61	-1
0	37865	78.71	-1
0	37913	78.81	-1
0	37961	78.91	-1
0	38011	79.01	-1
0	38059	79.11	-1
0	38107	79.21	-1
0	38155	79.31	-1
0	38203	79.41	-1
0	38251	79.51	-1
0	38299	79.61	-1
0	38347	79.71	-1
0	38395	79.81	-1
0	38443	79.91	-1
0	38493	80.01	-1
0	38541	80.11	-1
0	38589	80.21	-1
0	38637	80.31	-1
0	38685	80.41	-1
0	38733	80.51	-1
0	38781	80.61	-1
0	38829	80.71	-1
0	38877	80.81	-1
0	38925	80.91	-1
0	38975	81.01	-1
0	39023	81.11	-1
0	39071	81.21	-1
0	39119	81.31	-1
0	39167	81.41	-1
0	39215	81.51	-1
0	39263	81.61	-1
0	39311	81.71	-1
0	39359	81.81	-1
0	39407	81.91	-1
0	39457	82.01	-1
0	39505	82.11	-1
0	39553	82.21	-1
0	39601	82.31	-1
0	39649	82.41	-1
0	39697	82.51	-1
0	39745	82.61	-1
0	39793	82.71	-1
0	39841	82.81	-1
0	39889	82.91	-1
0	39939	83.01	-1
0	39987	83.11	-1
0	40035	83.21	-1
0	40083	83.31	-1
0	40131	83.41	-1
0	40179	83.51	-1
0	40227	83.61	-1
0	40275	83.71	-1
0	40323	83.81	-1
0	40371	83.91	-1
0	40421	84.01	-1
0	40469	84.11	-1
0	40517	84.21	-1
0	40565	84.31	-1
0	40613	84.41	-1
0	40661	84.51	-1
0	40709	84.61	-1
0	40757	84.71	-1
0	40805	84.81	-1
0	40853	84.91	-1
0	40903	85.01	-1
0	40951	85.11	-1
0	40999	85.21	-1
0	41047	85.31	-1
0	41095	85.41	-1
0	41143	85.51	-1
0	41191	85.61	-1
0	41239	85.71	-1
0	41287	85.81	-1
0	41335	85.91	-1
0	41385	86.01	-1
0	41433	86.11	-1
0	41481	86.21	-1
0	41529	86.31	-1
0	41577	86.41	-1
0	41625	86.51	-1
0	41673	86.61	-1
0	41721	86.71	-1
0	41769	86.81	-1
0	41817	86.91	-1
0	41867	87.01	-1
0	41915	87.11	-1
0	41963	87.21	-1
0	42011	87.31	-1
0	42059	87.41	-1
0	42107	87.51	-1
0	42155	87.61	-1
0	42203	87.71	-1
0	42251	87.81	-1
0	42299	87.91	-1
0	42349	88.01	-1
0	42397	88.11	-1
0	42445	88.21	-1
0	42493	88.31	-1
0	42541	88.41	-1
0	42589	88.51	-1
0	42637	88.61	-1
0	42685	88.71	-1
0	42733	88.81	-1
0	42781	88.91	-1
0	42831	89.01	-1
0	42879	89.11	-1
0	42927	89.21	-1
0	42975	89.31	-1
0	43023	89.41	-1
0	43071	89.51	-1
0	43119	89.61	-1
0	43167	89.71	-1
0	43215	89.81	-1
0	43263	89.91	-1
0	43313	90.01	-1
0	43361	90.11	-1
0	43409	90.21	-1
0	43457	90.31	-1
0	43505	90.41	-1
0	43553	90.51	-1
0	43601	90.61	-1
0	43649	90.71	-1
0	43697	90.81	-1
0	43745	90.91	-1
0	43795	91.01	-1
0	43843	91.11	-1
0	43891	91.21	-1
0	43939	91.31	-1
0	43987	91.41	-1
0	44035	91.51	-1
0	44083	91.61	-1
0	44131	91.71	-1
0	44179	91.81	-1
0	44227	91.91	-1
0	44277	92.01	-1
0	44325	92.11	-1
0	44373	92.21	-1
0	44421	92.31	-1
0	44469	92.41	-1
0	44517	92.51	-1
0	44565	92.61	-1
0	44613	92.71	-1
0	44661	92.81	-1
0	44709	92.91	-1
0	44759	93.01	-1
0	44807	93.11	-1
0	44855	93.21	-1
0	44903	93.31	-1
0	44951	93.41	-1
0	44999	93.51	-1
0	45047	93.61	-1
0	45095	93.71	-1
0	45143	93.81	-1
0	45191	93.91	-1
0	45241	94.01	-1
0	45289	94.11	-1
0	45337	94.21	-1
0	45385	94.31	-1
0	45433	94.41	-1
0	45481	94.51	-1
0	45529	94.61	-1
0	45577	94.71	-1
0	45625	94.81	-1
0	45673	94.91	-1
0	45723	95.01	-1
0	45771	95.11	-1
0	45819	95.21	-1
0	45867	95.31	-1
0	45915	95.41	-1
0	45963	95.51	-1
0	46011	95.61	-1
0	46059	95.71	-1
0	46107	95.81	-1
0	46155	95.91	-1
0	46205	96.01	-1
0	46253	96.11	-1
0	46301	96.21	-1
0	46349	96.31	-1
0	46397	96.41	-1
0	46445	96.51	-1
0	46493	96.61	-1
0	46541	96.71	-1
0	46589	96.81	-1
0	46637	96.91	-1
0	46687	97.01	-1
0	46735	97.11	-1
0	46783	97.21	-1
0	46831	97.31	-1
0	46879	97.41	-1
0	46927	97.51	-1
0	46975	97.61	-1
0	47023	97.71	-1
0	47071	97.81	-1
0	47119	97.91	-1
0	47169	98.01	-1
0	47217	98.11	-1
0	47265	98.21	-1
0	47313	98.31	-1
0	47361	98.41	-1
0	47409	98.51	-1
0	47457	98.61	-1
0	47505	98.71	-1
0	47553	98.81	-1
0	47601	98.91	-1
0	47651	99.01	-1
0	47699	99.11	-1
0	47747	99.21	-1
0	47795	99.31	-1
0	47843	99.41	-1
0	47891	99.51	-1
0	47939	99.61	-1
0	47987	99.71	-1
0	48035	99.81	-1
0	48083	99.91	-1
1	113	1.11	0
1	161	1.21	0
1	209	1.31	0
1	257	1.41	0
1	305	1.51	0
1	353	1.61	0
1	401	1.71	0
1	449	1.81	0
1	497	1.91	0
1	547	2.01	0
1	595	2.11	0
1	643	2.21	0
1	691	2.31	0
1	739	2.41	0
1	787	2.51	0
1	835	2.61	0
1	883	2.71	0
1	931	2.81	0
1	979	2.91	0
1	1029	3.01	0
1	1077	3.11	0
1	1125	3.21	0
1	1173	3.31	0
1	1221	3.41	0
1	1269	3.51	0
1	1317	3.61	0
1	1365	3.71	0
1	1413	3.81	0
1	1461	3.91	0
1	1511	4.01	0
1	1559	4.11	0
1	1607	4.21	0
1	1655	4.31	0
1	1703	4.41	0
1	1751	4.51	0
1	1799	4.61	0
1	1847	4.71	0
1	1895	4.81	0
1	1943	4.91	0
1	1993	5.01	0
1	2041	5.11	0
1	2089	5.21	0
1	2137	5.31	0
1	2185	5.41	0
1	2233	5.51	0
1	2281	5.61	0
1	2329	5.71	0
1	2377	5.81	0
1	2425	5.91	0
1	2475	6.01	0
1	2523	6.11	0
1	2571	6.21	0
1	2619	6.31	0
1	2667	6.41	0
1	2715	6.51	0
1	2763	6.61	0
1	2811	6.71	0
1	2859	6.81	0
1	2907	6.91	0
1	2957	7.01	0
1	3005	7.11	0
1	3053	7.21	0
1	3101	7.31	0
1	3149	7.41	0
1	3197	7.51	0
1	3245	7.61	0
1	3293	7.71	0
1	3341	7.81	0
1	3389	7.91	0
1	3439	8.01	0
1	3487	8.11	0
1	3535	8.21	0
1	3583	8.31	0
1	3631	8.41	0
1	3679	8.51	0
1	3727	8.61	0
1	3775	8.71	0
1	3823	8.81	0
1	3871	8.91	0
1	3921	9.01	0
1	3969	9.11	0
1	4017	9.21	0
1	4065	9.31	0
1	4113	9.41	0
1	4161	9.51	0
1	4209	9.61	0
1	4257	9.71	0
1	4305	9.81	0
1	4353	9.91	0
1	4423	10.01	0
1	4472	10.11	0
1	4521	10.21	0
1	4570	10.31	0
1	4619	10.41	0
1	4668	10.51	0
1	4717	10.61	0
1	4766	10.71	0
1	4815	10.81	0
1	4864	10.91	0
1	4915	11.01	0
1	4964	11.11	0
1	5013	11.21	0
1	5062	11.31	0
1	5111	11.41	0
1	5160	11.51	0
1	5209	11.61	0
1	5258	11.71	0
1	5307	11.81	0
1	5356	11.91	0
1	5407	12.01	0
1	5456	12.11	0
1	5505	12.21	0
1	5554	12.31	0
1	5603	12.41	0
1	5652	12.51	0
1	5701	12.61	0
1	5750	12.71	0
1	5799	12.81	0
1	5848	12.91	0
1	5899	13.01	0
1	5948	13.11	0
1	5997	13.21	0
1	6046	13.31	0
1	6095	13.41	0
1	6144	13.51	0
1	6193	13.61	0
1	6242	13.71	0
1	6291	13.81	0
1	6340	13.91	0
1	6391	14.01	0
1	6440	14.11	0
1	6489	14.21	0
1	6538	14.31	0
1	6587	14.41	0
1	6636	14.51	0
1	6685	14.61	0
1	6734	14.71	0
1	6783	14.81	0
1	6832	14.91	0
1	6883	15.01	0
1	6932	15.11	0
1	6981	15.21	0
1	7030	15.31	0
1	7079	15.41	0
1	7128	15.51	0
1	7177	15.61	0
1	7226	15.71	0
1	7275	15.81	0
1	7324	15.91	0
1	7375	16.01	0
1	7424	16.11	0
1	7473	16.21	0
1	7522	16.31	0
1	7571	16.41	0
1	7620	16.51	0
1	7669	16.61	0
1	7718	16.71	0
1	7767	16.81	0
1	7816	16.91	0
1	7867	17.01	0
1	7916	17.11	0
1	7965	17.21	0
1	8014	17.31	0
1	8063	17.41	0
1	8112	17.51	0
1	8161	17.61	0
1	8210	17.71	0
1	8259	17.81	0
1	8308	17.91	0
1	8359	18.01	0
1	8408	18.11	0
1	8457	18.21	0
1	8506	18.31	0
1	8555	18.41	0
1	8604	18.51	0
1	8653	18.61	0
1	8702	18.71	0
1	8751	18.81	0
1	8800	18.91	0
1	8851	19.01	0
1	8900	19.11	0
1	8949	19.21	0
1	8998	19.31	0
1	9047	19.41	0
1	9096	19.51	0
1	9145	19.61	0
1	9194	19.71	0
1	9243	19.81	0
1	9292	19.91	0
1	9343	20.01	0
1	9392	20.11	0
1	9441	20.21	0
1	9490	20.31	0
1	9539	20.41	0
1	9588	20.51	0
1	9637	20.61	0
1	9686	20.71	0
1	9735	20.81	0
1	9784	20.91	0
1	9835	21.01	0
1	9884	21.11	0
1	9933	21.21	0
1	9982	21.31	0
1	10031	21.41	0
1	10080	21.51	0
1	10129	21.61	0
1	10178	21.71	0
1	10227	21.81	0
1	10276	21.91	0
1	10327	22.01	0
1	10376	22.11	0
1	10425	22.21	0
1	10474	22.31	0
1	10523	22.41	0
1	10572	22.51	0
1	10621	22.61	0
1	10670	22.71	0
1	10719	22.81	0
1	10768	22.91	0
1	10819	23.01	0
1	10868	23.11	0
1	10917	23.21	0
1	10966	23.31	0
1	11015	23.41	0
1	11064	23.51	0
1	11113	23.61	0
1	11162	23.71	0
1	11211	23.81	0
1	11260	23.91	0
1	11311	24.01	0
1	11360	24.11	0
1	11409	24.21	0
1	11458	24.31	0
1	11507	24.41	0
1	11556	24.51	0
1	11605	24.61	0
1	11654	24.71	0
1	11703	24.81	0
1	11752	24.91	0
1	11803	25.01	0
1	11852	25.11	0
1	11901	25.21	0
1	11950	25.31	0
1	11999	25.41	0
1	12048	25.51	0
1	12097	25.61	0
1	12146	25.71	0
1	12195	25.81	0
1	12244	25.91	0
1	12295	26.01	0
1	12344	26.11	0
1	12393	26.21	0
1	12442	26.31	0
1	12491	26.41	0
1	12540	26.51	0
1	12589	26.61	0
1	12638	26.71	0
1	12687	26.81	0
1	12736	26.91	0
1	12787	27.01	0
1	12836	27.11	0
1	12885	27.21	0
1	12934	27.31	0
1	12983	27.41	0
1	13032	27.51	0
1	13081	27.61	0
1	13130	27.71	0
1	13179	27.81	0
1	13228	27.91	0
1	13279	28.01	0
1	13328	28.11	0
1	13377	28.21	0
1	13426	28.31	0
1	13475	28.41	0
1	13524	28.51	0
1	13573	28.61	0
1	13622	28.71	0
1	13671	28.81	0
1	13720	28.91	0
1	13771	29.01	0
1	13820	29.11	0
1	13869	29.21	0
1	13918	29.31	0
1	13967	29.41	0
1	14016	29.51	0
1	14065	29.61	0
1	14114	29.71	0
1	14163	29.81	0
1	14212	29.91	0
1	14263	30.01	0
1	14312	30.11	0
1	14361	30.21	0
1	14410	30.31	0
1	14459	30.41	0
1	14508	30.51	0
1	14557	30.61	0
1	14606	30.71	0
1	14655	30.81	0
1	14704	30.91	0
1	14755	31.01	0
1	14804	31.11	0
1	14853	31.21	0
1	14902	31.31	0
1	14951	31.41	0
1	15000	31.51	0
1	15049	31.61	0
1	15098	31.71	0
1	15147	31.81	0
1	15196	31.91	0
1	15247	32.01	0
1	15296	32.11	0
1	15345	32.21	0
1	15394	32.31	0
1	15443	32.41	0
1	15492	32.51	0
1	15541	32.61	0
1	15590	32.71	0
1	15639	32.81	0
1	15688	32.91	0
1	15739	33.01	0
1	15788	33.11	0
1	15837	33.21	0
1	15886	33.31	0
1	15935	33.41	0
1	15984	33.51	0
1	16033	33.61	0
1	16082	33.71	0
1	16131	33.81	0
1	16180	33.91	0
1	16231	34.01	0
1	16280	34.11	0
1	16329	34.21	0
1	16378	34.31	0
1	16427	34.41	0
1	16476	34.51	0
1	16525	34.61	0
1	16574	34.71	0
1	16623	34.81	0
1	16672	34.91	0
1	16723	35.01	0
1	16772	35.11	0
1	16821	35.21	0
1	16870	35.31	0
1	16919	35.41	0
1	16968	35.51	0
1	17017	35.61	0
1	17066	35.71	0
1	17115	35.81	0
1	17164	35.91	0
1	17215	36.01	0
1	17264	36.11	0
1	17313	36.21	0
1	17362	36.31	0
1	17477	36.41	0
1	17525	36.51	0
1	17573	36.61	0
1	17621	36.71	0
1	17669	36.81	0
1	17717	36.91	0
1	17767	37.01	0
1	17815	37.11	0
1	17863	37.21	0
1	17911	37.31	0
1	17959	37.41	0
1	18007	37.51	0
1	18055	37.61	0
1	18103	37.71	0
1	18151	37.81	0
1	18199	37.91	0
1	18249	38.01	0
1	18297	38.11	0
1	18345	38.21	0
1	18393	38.31	0
1	18441	38.41	0
1	18489	38.51	0
1	18537	38.61	0
1	18585	38.71	0
1	18633	38.81	0
1	18681	38.91	0
1	18731	39.01	0
1	18779	39.11	0
1	18827	39.21	0
1	18875	39.31	0
1	18923	39.41	0
1	18971	39.51	0
1	19019	39.61	0
1	19067	39.71	0
1	19115	39.81	0
1	19163	39.91	0
1	19213	40.01	0
1	19261	40.11	0
1	19309	40.21	0
1	19357	40.31	0
1	19405	40.41	0
1	19453	40.51	0
1	19501	40.61	0
1	19549	40.71	0
1	19597	40.81	0
1	19645	40.91	0
1	19695	41.01	0
1	19743	41.11	0
1	19791	41.21	0
1	19839	41.31	0
1	19887	41.41	0
1	19935	41.51	0
1	19983	41.61	0
1	20031	41.71	0
1	20079	41.81	0
1	20127	41.91	0
1	20177	42.01	0
1	20225	42.11	0
1	20273	42.21	0
1	20321	42.31	0
1	20369	42.41	0
1	20417	42.51	0
1	20465	42.61	0
1	20513	42.71	0
1	20561	42.81	0
1	20609	42.91	0
1	20659	43.01	0
1	20707	43.11	0
1	20755	43.21	0
1	20803	43.31	0
1	20851	43.41	0
1	20899	43.51	0
1	20947	43.61	0
1	20995	43.71	0
1	21043	43.81	0
1	21091	43.91	0
1	21141	44.01	0
1	21189	44.11	0
1	21237	44.21	0
1	21285	44.31	0
1	21333	44.41	0
1	21381	44.51	0
1	21429	44.61	0
1	21477	44.71	0
1	21525	44.81	0
1	21573	44.91	0
1	21623	45.01	0
1	21671	45.11	0
1	21719	45.21	0
1	21767	45.31	0
1	21815	45.41	0
1	21863	45.51	0
1	21911	45.61	0
1	21959	45.71	0
1	22007	45.81	0
1	22055	45.91	0
1	22105	46.01	0
1	22153	46.11	0
1	22201	46.21	0
1	22249	46.31	0
1	22297	46.41	0
1	22345	46.51	0
1	22393	46.61	0
1	22441	46.71	0
1	22489	46.81	0
1	22537	46.91	0
1	22587	47.01	0
1	22635	47.11	0
1	22683	47.21	0
1	22731	47.31	0
1	22779	47.41	0
1	22827	47.51	0
1	22875	47.61	0
1	22923	47.71	0
1	22971	47.81	0
1	23019	47.91	0
1	23069	48.01	0
1	23117	48.11	0
1	23165	48.21	0
1	23213	48.31	0
1	23261	48.41	0
1	23309	48.51	0
1	23357	48.61	0
1	23405	48.71	0
1	23453	48.81	0
1	23501	48.91	0
1	23551	49.01	0
1	23599	49.11	0
1	23647	49.21	0
1	23695	49.31	0
1	23743	49.41	0
1	23791	49.51	0
1	23839	49.61	0
1	23887	49.71	0
1	23935	49.81	0
1	23983	49.91	0
1	24033	50.01	0
1	24081	50.11	0
1	24129	50.21	0
1	24177	50.31	0
1	24225	50.41	0
1	24273	50.51	0
1	24321	50.61	0
1	24369	50.71	0
1	24417	50.81	0
1	24465	50.91	0
1	24515	51.01	0
1	24563	51.11	0
1	24611	51.21	0
1	24659	51.31	0
1	24707	51.41	0
1	24755	51.51	0
1	24803	51.61	0
1	24851	51.71	0
1	24899	51.81	0
1	24947	51.91	0
1	24997	52.01	0
1	25045	52.11	0
1	25093	52.21	0
1	25141	52.31	0
1	25189	52.41	0
1	25237	52.51	0
1	25285	52.61	0
1	25333	52.71	0
1	25381	52.81	0
1	25429	52.91	0
1	25479	53.01	0
1	25527	53.11	0
1	25575	53.21	0
1	25623	53.31	0
1	25671	53.41	0
1	25719	53.51	0
1	25767	53.61	0
1	25815	53.71	0
1	25863	53.81	0
1	25911	53.91	0
1	25961	54.01	0
1	26009	54.11	0
1	26057	54.21	0
1	26105	54.31	0
1	26153	54.41	0
1	26201	54.51	0
1	26249	54.61	0
1	26297	54.71	0
1	26345	54.81	0
1	26393	54.91	0
1	26443	55.01	0
1	26491	55.11	0
1	26539	55.21	0
1	26587	55.31	0
1	26635	55.41	0
1	26683	55.51	0
1	26731	55.61	0
1	26779	55.71	0
1	26827	55.81	0
1	26875	55.91	0
1	26925	56.01	0
1	26973	56.11	0
1	27021	56.21	0
1	27069	56.31	0
1	27117	56.41	0
1	27165	56.51	0
1	27213	56.61	0
1	27261	56.71	0
1	27309	56.81	0
1	27357	56.91	0
1	27407	57.01	0
1	27455	57.11	0
1	27503	57.21	0
1	27551	57.31	0
1	27599	57.41	0
1	27647	57.51	0
1	27695	57.61	0
1	27743	57.71	0
1	27791	57.81	0
1	27839	57.91	0
1	27889	58.01	0
1	27937	58.11	0
1	27985	58.21	0
1	28033	58.31	0
1	28081	58.41	0
1	28129	58.51	0
1	28177	58.61	0
1	28225	58.71	0
1	28273	58.81	0
1	28321	58.91	0
1	28371	59.01	0
1	28419	59.11	0
1	28467	59.21	0
1	28515	59.31	0
1	28563	59.41	0
1	28611	59.51	0
1	28659	59.61	0
1	28707	59.71	0
1	28755	59.81	0
1	28803	59.91	0
1	28853	60.01	0
1	28901	60.11	0
1	28949	60.21	0
1	28997	60.31	0
1	29045	60.41	0
1	29093	60.51	0
1	29141	60.61	0
1	29189	60.71	0
1	29237	60.81	0
1	29285	60.91	0
1	29335	61.01	0
1	29383	61.11	0
1	29431	61.21	0
1	29479	61.31	0
1	29527	61.41	0
1	29575	61.51	0
1	29623	61.61	0
1	29671	61.71	0
1	29719	61.81	0
1	29767	61.91	0
1	29817	62.01	0
1	29865	62.11	0
1	29913	62.21	0
1	29961	62.31	0
1	30009	62.41	0
1	30057	62.51	0
1	30105	62.61	0
1	30153	62.71	0
1	30201	62.81	0
1	30249	62.91	0
1	30299	63.01	0
1	30347	63.11	0
1	30395	63.21	0
1	30443	63.31	0
1	30491	63.41	0
1	30539	63.51	0
1	30587	63.61	0
1	30635	63.71	0
1	30683	63.81	0
1	30731	63.91	0
1	30781	64.01	0
1	30829	64.11	0
1	30877	64.21	0
1	30925	64.31	0
1	30973	64.41	0
1	31021	64.51	0
1	31069	64.61	0
1	31117	64.71	0
1	31165	64.81	0
1	31213	64.91	0
1	31263	65.01	0
1	31311	65.11	0
1	31359	65.21	0
1	31407	65.31	0
1	31455	65.41	0
1	31503	65.51	0
1	31551	65.61	0
1	31599	65.71	0
1	31647	65.81	0
1	31695	65.91	0
1	31745	66.01	0
1	31793	66.11	0
1	31841	66.21	0
1	31889	66.31	0
1	31937	66.41	0
1	31985	66.51	0
1	32033	66.61	0
1	32081	66.71	0
1	32129	66.81	0
1	32177	66.91	0
1	32227	67.01	0
1	32275	67.11	0
1	32323	67.21	0
1	32371	67.31	0
1	32419	67.41	0
1	32467	67.51	0
1	32515	67.61	0
1	32563	67.71	0
1	32611	67.81	0
1	32659	67.91	0
1	32709	68.01	0
1	32757	68.11	0
1	32805	68.21	0
1	32853	68.31	0
1	32901	68.41	0
1	32949	68.51	0
1	32997	68.61	0
1	33045	68.71	0
1	33093	68.81	0
1	33141	68.91	0
1	33191	69.01	0
1	33239	69.11	0
1	33287	69.21	0
1	33335	69.31	0
1	33383	69.41	0
1	33431	69.51	0
1	33479	69.61	0
1	33527	69.71	0
1	33575	69.81	0
1	33623	69.91	0
1	33673	70.01	0
1	33721	70.11	0
1	33769	70.21	0
1	33817	70.31	0
1	33865	70.41	0
1	33913	70.51	0
1	33961	70.61	0
1	34009	70.71	0
1	34057	70.81	0
1	34105	70.91	0
1	34155	71.01	0
1	34203	71.11	0
1	34251	71.21	0
1	34299	71.31	0
1	34347	71.41	0
1	34395	71.51	0
1	34443	71.61	0
1	34491	71.71	0
1	34539	71.81	0
1	34587	71.91	0
1	34637	72.01	0
1	34685	72.11	0
1	34733	72.21	0
1	34781	72.31	0
1	34829	72.41	0
1	34877	72.51	0
1	34925	72.61	0
1	34973	72.71	0
1	35021	72.81	0
1	35069	72.91	0
1	35119	73.01	0
1	35167	73.11	0
1	35215	73.21	0
1	35263	73.31	0
1	35311	73.41	0
1	35359	73.51	0
1	35407	73.61	0
1	35455	73.71	0
1	35503	73.81	0
1	35551	73.91	0
1	35601	74.01	0
1	35649	74.11	0
1	35697	74.21	0
1	35745	74.31	0
1	35793	74.41	0
1	35841	74.51	0
1	35889	74.61	0
1	35937	74.71	0
1	35985	74.81	0
1	36033	74.91	0
1	36083	75.01	0
1	36131	75.11	0
1	36179	75.21	0
1	36227	75.31	0
1	36275	75.41	0
1	36323	75.51	0
1	36371	75.61	0
1	36419	75.71	0
1	36467	75.81	0
1	36515	75.91	0
1	36565	76.01	0
1	36613	76.11	0
1	36661	76.21	0
1	36709	76.31	0
1	36757	76.41	0
1	36805	76.51	0
1	36853	76.61	0
1	36901	76.71	0
1	36949	76.81	0
1	36997	76.91	0
1	37047	77.01	0
1	37095	77.11	0
1	37143	77.21	0
1	37191	77.31	0
1	37239	77.41	0
1	37287	77.51	0
1	37335	77.61	0
1	37383	77.71	0
1	37431	77.81	0
1	37479	77.91	0
1	37529	78.01	0
1	37577	78.11	0
1	37625	78.21	0
1	37673	78.31	0
1	37721	78.41	0
1	37769	78.51	0
1	37817	78.61	0
1	37865	78.71	0
1	37913	78.81	0
1	37961	78.91	0
1	38011	79.01	0
1	38059	79.11	0
1	38107	79.21	0
1	38155	79.31	0
1	38203	79.41	0
1	38251	79.51	0
1	38299	79.61	0
1	38347	79.71	0
1	38395	79.81	0
1	38443	79.91	0
1	38493	80.01	0
1	38541	80.11	0
1	38589	80.21	0
1	38637	80.31	0
1	38685	80.41	0
1	38733	80.51	0
1	38781	80.61	0
1	38829	80.71	0
1	38877	80.81	0
1	38925	80.91	0
1	38975	81.01	0
1	39023	81.11	0
1	39071	81.21	0
1	39119	81.31	0
1	39167	81.41	0
1	39215	81.51	0
1	39263	81.61	0
1	39311	81.71	0
1	39359	81.81	0
1	39407	81.91	0
1	39457	82.01	0
1	39505	82.11	0
1	39553	82.21	0
1	39601	82.31	0
1	39649	82.41	0
1	39697	82.51	0
1	39745	82.61	0
1	39793	82.71	0
1	39841	82.81	0
1	39889	82.91	0
1	39939	83.01	0
1	39987	83.11	0
1	40035	83.21	0
1	40083	83.31	0
1	40131	83.41	0
1	40179	83.51	0
1	40227	83.61	0
1	40275	83.71	0
1	40323	83.81	0
1	40371	83.91	0
1	40421	84.01	0
1	40469	84.11	0
1	40517	84.21	0
1	40565	84.31	0
1	40613	84.41	0
1	40661	84.51	0
1	40709	84.61	0
1	40757	84.71	0
1	40805	84.81	0
1	40853	84.91	0
1	40903	85.01	0
1	40951	85.11	0
1	40999	85.21	0
1	41047	85.31	0
1	41095	85.41	0
1	41143	85.51	0
1	41191	85.61	0
1	41239	85.71	0
1	41287	85.81	0
1	41335	85.91	0
1	41385	86.01	0
1	41433	86.11	0
1	41481	86.21	0
1	41529	86.31	0
1	41577	86.41	0
1	41625	86.51	0
1	41673	86.61	0
1	41721	86.71	0
1	41769	86.81	0
1	41817	86.91	0
1	41867	87.01	0
1	41915	87.11	0
1	41963	87.21	0
1	42011	87.31	0
1	42059	87.41	0
1	42107	87.51	0
1	42155	87.61	0
1	42203	87.71	0
1	42251	87.81	0
1	42299	87.91	0
1	42349	88.01	0
1	42397	88.11	0
1	42445	88.21	0
1	42493	88.31	0
1	42541	88.41	0
1	42589	88.51	0
1	42637	88.61	0
1	42685	88.71	0
1	42733	88.81	0
1	42781	88.91	0
1	42831	89.01	0
1	42879	89.11	0
1	42927	89.21	0
1	42975	89.31	0
1	43023	89.41	0
1	43071	89.51	0
1	43119	89.61	0
1	43167	89.71	0
1	43215	89.81	0
1	43263	89.91	0
1	43313	90.01	0
1	43361	90.11	0
1	43409	90.21	0
1	43457	90.31	0
1	43505	90.41	0
1	43553	90.51	0
1	43601	90.61	0
1	43649	90.71	0
1	43697	90.81	0
1	43745	90.91	0
1	43795	91.01	0
1	43843	91.11	0
1	43891	91.21	0
1	43939	91.31	0
1	43987	91.41	0
1	44035	91.51	0
1	44083	91.61	0
1	44131	91.71	0
1	44179	91.81	0
1	44227	91.91	0
1	44277	92.01	0
1	44325	92.11	0
1	44373	92.21	0
1	44421	92.31	0
1	44469	92.41	0
1	44517	92.51	0
1	44565	92.61	0
1	44613	92.71	0
1	44661	92.81	0
1	44709	92.91	0
1	44759	93.01	0
1	44807	93.11	0
1	44855	93.21	0
1	44903	93.31	0
1	44951	93.41	0
1	44999	93.51	0
1	45047	93.61	0
1	45095	93.71	0
1	45143	93.81	0
1	45191	93.91	0
1	45241	94.01	0
1	45289	94.11	0
1	45337	94.21	0
1	45385	94.31	0
1	45433	94.41	0
1	45481	94.51	0
1	45529	94.61	0
1	45577	94.71	0
1	45625	94.81	0
1	45673	94.91	0
1	45723	95.01	0
1	45771	95.11	0
1	45819	95.21	0
1	45867	95.31	0
1	45915	95.41	0
1	45963	95.51	0
1	46011	95.61	0
1	46059	95.71	0
1	46107	95.81	0
1	46155	95.91	0
1	46205	96.01	0
1	46253	96.11	0
1	46301	96.21	0
1	46349	96.31	0
1	46397	96.41	0
1	46445	96.51	0
1	46493	96.61	0
1	46541	96.71	0
1	46589	96.81	0
1	46637	96.91	0
1	46687	97.01	0
1	46735	97.11	0
1	46783	97.21	0
1	46831	97.31	0
1	46879	97.41	0
1	46927	97.51	0
1	46975	97.61	0
1	47023	97.71	0
1	47071	97.81	0
1	47119	97.91	0
1	47169	98.01	0
1	47217	98.11	0
1	47265	98.21	0
1	47313	98.31	0
1	47361	98.41	0
1	47409	98.51	0
1	47457	98.61	0
1	47505	98.71	0
1	47553	98.81	0
1	47601	98.91	0
1	47651	99.01	0
1	47699	99.11	0
1	47747	99.21	0
1	47795	99.31	0
1	47843	99.41	0
1	47891	99.51	0
1	47939	99.61	0
1	47987	99.71	0
1	48035	99.81	0
1	48083	99.91	0
2	113	1.11	0
2	161	1.21	0
2	209	1.31	0
2	257	1.41	0
2	305	1.51	0
2	353	1.61	0
2	401	1.71	0
2	449	1.81	0
2	497	1.91	0
2	547	2.01	0
2	595	2.11	0
2	643	2.21	0
2	691	2.31	0
2	739	2.41	0
2	787	2.51	0
2	835	2.61	0
2	883	2.71	0
2	931	2.81	0
2	979	2.91	0
2	1029	3.01	0
2	1077	3.11	0
2	1125	3.21	0
2	1173	3.31	0
2	1221	3.41	0
2	1269	3.51	0
2	1317	3.61	0
2	1365	3.71	0
2	1413	3.81	0
2	1461	3.91	0
2	1511	4.01	0
2	1559	4.11	0
2	1607	4.21	0
2	1655	4.31	0
2	1703	4.41	0
2	1751	4.51	0
2	1799	4.61	0
2	1847	4.71	0
2	1895	4.81	0
2	1943	4.91	0
2	1993	5.01	0
2	2041	5.11	0
2	2089	5.21	0
2	2137	5.31	0
2	2185	5.41	0
2	2233	5.51	0
2	2281	5.61	0
2	2329	5.71	0
2	2377	5.81	0
2	2425	5.91	0
2	2475	6.01	0
2	2523	6.11	0
2	2571	6.21	0
2	2619	6.31	0
2	2667	6.41	0
2	2715	6.51	0
2	2763	6.61	0
2	2811	6.71	0
2	2859	6.81	0
2	2907	6.91	0
2	2957	7.01	0
2	3005	7.11	0
2	3053	7.21	0
2	3101	7.31	0
2	3149	7.41	0
2	3197	7.51	0
2	3245	7.61	0
2	3293	7.71	0
2	3341	7.81	0
2	3389	7.91	0
2	3439	8.01	0
2	3487	8.11	0
2	3535	8.21	0
2	3583	8.31	0
2	3631	8.41	0
2	3679	8.51	0
2	3727	8.61	0
2	3775	8.71	0
2	3823	8.81	0
2	3871	8.91	0
2	3921	9.01	0
2	3969	9.11	0
2	4017	9.21	0
2	4065	9.31	0
2	4113	9.41	0
2	4161	9.51	0
2	4209	9.61	0
2	4257	9.71	0
2	4305	9.81	0
2	4353	9.91	0
2	4423	10.01	0
2	4472	10.11	0
2	4521	10.21	0
2	4570	10.31	0
2	4619	10.41	0
2	4668	10.51	0
2	4717	10.61	0
2	4766	10.71	0
2	4815	10.81	0
2	4864	10.91	0
2	4915	11.01	0
2	4964	11.11	0
2	5013	11.21	0
2	5062	11.31	0
2	5111	11.41	0
2	5160	11.51	0
2	5209	11.61	0
2	5258	11.71	0
2	5307	11.81	0
2	5356	11.91	0
2	5407	12.01	0
2	5456	12.11	0
2	5505	12.21	0
2	5554	12.31	0
2	5603	12.41	0
2	5652	12.51	0
2	5701	12.61	0
2	5750	12.71	0
2	5799	12.81	0
2	5848	12.91	0
2	5899	13.01	0
2	5948	13.11	0
2	5997	13.21	0
2	6046	13.31	0
2	6095	13.41	0
2	6144	13.51	0
2	6193	13.61	0
2	6242	13.71	0
2	6291	13.81	0
2	6340	13.91	0
2	6391	14.01	0
2	6440	14.11	0
2	6489	14.21	0
2	6538	14.31	0
2	6587	14.41	0
2	6636	14.51	0
2	6685	14.61	0
2	6734	14.71	0
2	6783	14.81	0
2	6832	14.91	0
2	6883	15.01	0
2	6932	15.11	0
2	6981	15.21	0
2	7030	15.31	0
2	7079	15.41	0
2	7128	15.51	0
2	7177	15.61	0
2	7226	15.71	0
2	7275	15.81	0
2	7324	15.91	0
2	7375	16.01	0
2	7424	16.11	0
2	7473	16.21	0
2	7522	16.31	0
2	7571	16.41	0
2	7620	16.51	0
2	7669	16.61	0
2	7718	16.71	0
2	7767	16.81	0
2	7816	16.91	0
2	7867	17.01	0
2	7916	17.11	0
2	7965	17.21	0
2	8014	17.31	0
2	8063	17.41	0
2	8112	17.51	0
2	8161	17.61	0
2	8210	17.71	0
2	8259	17.81	0
2	8308	17.91	0
2	8359	18.01	0
2	8408	18.11	0
2	8457	18.21	0
2	8506	18.31	0
2	8555	18.41	0
2	8604	18.51	0
2	8653	18.61	0
2	8702	18.71	0
2	8751	18.81	0
2	8800	18.91	0
2	8851	19.01	0
2	8900	19.11	0
2	8949	19.21	0
2	8998	19.31	0
2	9047	19.41	0
2	9096	19.51	0
2	9145	19.61	0
2	9194	19.71	0
2	9243	19.81	0
2	9292	19.91	0
2	9343	20.01	0
2	9392	20.11	0
2	9441	20.21	0
2	9490	20.31	0
2	9539	20.41	0
2	9588	20.51	0
2	9637	20.61	0
2	9686	20.71	0
2	9735	20.81	0
2	9784	20.91	0
2	9835	21.01	0
2	9884	21.11	0
2	9933	21.21	0
2	9982	21.31	0
2	10031	21.41	0
2	10080	21.51	0
2	10129	21.61	0
2	10178	21.71	0
2	10227	21.81	0
2	10276	21.91	0
2	10327	22.01	0
2	10376	22.11	0
2	10425	22.21	0
2	10474	22.31	0
2	10523	22.41	0
2	10572	22.51	0
2	10621	22.61	0
2	10670	22.71	0
2	10719	22.81	0
2	10768	22.91	0
2	10819	23.01	0
2	10868	23.11	0
2	10917	23.21	0
2	10966	23.31	0
2	11015	23.41	0
2	11064	23.51	0
2	11113	23.61	0
2	11162	23.71	0
2	11211	23.81	0
2	11260	23.91	0
2	11311	24.01	0
2	11360	24.11	0
2	11409	24.21	0
2	11458	24.31	0
2	11507	24.41	0
2	11556	24.51	0
2	11605	24.61	0
2	11654	24.71	0
2	11703	24.81	0
2	11752	24.91	0
2	11803	25.01	0
2	11852	25.11	0
2	11901	25.21	0
2	11950	25.31	0
2	11999	25.41	0
2	12048	25.51	0
2	12097	25.61	0
2	12146	25.71	0
2	12195	25.81	0
2	12244	25.91	0
2	12295	26.01	0
2	12344	26.11	0
2	12393	26.21	0
2	12442	26.31	0
2	12491	26.41	0
2	12540	26.51	0
2	12589	26.61	0
2	12638	26.71	0
2	12687	26.81	0
2	12736	26.91	0
2	12787	27.01	0
2	12836	27.11	0
2	12885	27.21	0
2	12934	27.31	0
2	12983	27.41	0
2	13032	27.51	0
2	13081	27.61	0
2	13130	27.71	0
2	13179	27.81	0
2	13228	27.91	0
2	13279	28.01	0
2	13328	28.11	0
2	13377	28.21	0
2	13426	28.31	0
2	13475	28.41	0
2	13524	28.51	0
2	13573	28.61	0
2	13622	28.71	0
2	13671	28.81	0
2	13720	28.91	0
2	13771	29.01	0
2	13820	29.11	0
2	13869	29.21	0
2	13918	29.31	0
2	13967	29.41	0
2	14016	29.51	0
2	14065	29.61	0
2	14114	29.71	0
2	14163	29.81	0
2	14212	29.91	0
2	14263	30.01	0
2	14312	30.11	0
2	14361	30.21	0
2	14410	30.31	0
2	14459	30.41	0
2	14508	30.51	0
2	14557	30.61	0
2	14606	30.71	0
2	14655	30.81	0
2	14704	30.91	0
2	14755	31.01	0
2	14804	31.11	0
2	14853	31.21	0
2	14902	31.31	0
2	14951	31.41	0
2	15000	31.51	0
2	15049	31.61	0
2	15098	31.71	0
2	15147	31.81	0
2	15196	31.91	0
2	15247	32.01	0
2	15296	32.11	0
2	15345	32.21	0
2	15394	32.31	0
2	15443	32.41	0
2	15492	32.51	0
2	15541	32.61	0
2	15590	32.71	0
2	15639	32.81	0
2	15688	32.91	0
2	15739	33.01	0
2	15788	33.11	0
2	15837	33.21	0
2	15886	33.31	0
2	15935	33.41	0
2	15984	33.51	0
2	16033	33.61	0
2	16082	33.71	0
2	16131	33.81	0
2	16180	33.91	0
2	16231	34.01	0
2	16280	34.11	0
2	16329	34.21	0
2	16378	34.31	0
2	16427	34.41	0
2	16476	34.51	0
2	16525	34.61	0
2	16574	34.71	0
2	16623	34.81	0
2	16672	34.91	0
2	16723	35.01	0
2	16772	35.11	0
2	16821	35.21	0
2	16870	35.31	0
2	16919	35.41	0
2	16968	35.51	0
2	17017	35.61	0
2	17066	35.71	0
2	17115	35.81	0
2	17164	35.91	0
2	17215	36.01	0
2	17264	36.11	0
2	17313	36.21	0
2	17362	36.31	0
2	17477	36.41	0
2	17525	36.51	0
2	17573	36.61	0
2	17621	36.71	0
2	17669	36.81	0
2	17717	36.91	0
2	17767	37.01	0
2	17815	37.11	0
2	17863	37.21	0
2	17911	37.31	0
2	17959	37.41	0
2	18007	37.51	0
2	18055	37.61	0
2	18103	37.71	0
2	18151	37.81	0
2	18199	37.91	0
2	18249	38.01	0
2	18297	38.11	0
2	18345	38.21	0
2	18393	38.31	0
2	18441	38.41	0
2	18489	38.51	0
2	18537	38.61	0
2	18585	38.71	0
2	18633	38.81	0
2	18681	38.91	0
2	18731	39.01	0
2	18779	39.11	0
2	18827	39.21	0
2	18875	39.31	0
2	18923	39.41	0
2	18971	39.51	0
2	19019	39.61	0
2	19067	39.71	0
2	19115	39.81	0
2	19163	39.91	0
2	19213	40.01	0
2	19261	40.11	0
2	19309	40.21	0
2	19357	40.31	0
2	19405	40.41	0
2	19453	40.51	0
2	19501	40.61	0
2	19549	40.71	0
2	19597	40.81	0
2	19645	40.91	0
2	19695	41.01	0
2	19743	41.11	0
2	19791	41.21	0
2	19839	41.31	0
2	19887	41.41	0
2	19935	41.51	0
2	19983	41.61	0
2	20031	41.71	0
2	20079	41.81	0
2	20127	41.91	0
2	20177	42.01	0
2	20225	42.11	0
2	20273	42.21	0
2	20321	42.31	0
2	20369	42.41	0
2	20417	42.51	0
2	20465	42.61	0
2	20513	42.71	0
2	20561	42.81	0
2	20609	42.91	0
2	20659	43.01	0
2	20707	43.11	0
2	20755	43.21	0
2	20803	43.31	0
2	20851	43.41	0
2	20899	43.51	0
2	20947	43.61	0
2	20995	43.71	0
2	21043	43.81	0
2	21091	43.91	0
2	21141	44.01	0
2	21189	44.11	0
2	21237	44.21	0
2	21285	44.31	0
2	21333	44.41	0
2	21381	44.51	0
2	21429	44.61	0
2	21477	44.71	0
2	21525	44.81	0
2	21573	44.91	0
2	21623	45.01	0
2	21671	45.11	0
2	21719	45.21	0
2	21767	45.31	0
2	21815	45.41	0
2	21863	45.51	0
2	21911	45.61	0
2	21959	45.71	0
2	22007	45.81	0
2	22055	45.91	0
2	22105	46.01	0
2	22153	46.11	0
2	22201	46.21	0
2	22249	46.31	0
2	22297	46.41	0
2	22345	46.51	0
2	22393	46.61	0
2	22441	46.71	0
2	22489	46.81	0
2	22537	46.91	0
2	22587	47.01	0
2	22635	47.11	0
2	22683	47.21	0
2	22731	47.31	0
2	22779	47.41	0
2	22827	47.51	0
2	22875	47.61	0
2	22923	47.71	0
2	22971	47.81	0
2	23019	47.91	0
2	23069	48.01	0
2	23117	48.11	0
2	23165	48.21	0
2	23213	48.31	0
2	23261	48.41	0
2	23309	48.51	0
2	23357	48.61	0
2	23405	48.71	0
2	23453	48.81	0
2	23501	48.91	0
2	23551	49.01	0
2	23599	49.11	0
2	23647	49.21	0
2	23695	49.31	0
2	23743	49.41	0
2	23791	49.51	0
2	23839	49.61	0
2	23887	49.71	0
2	23935	49.81	0
2	23983	49.91	0
2	24033	50.01	0
2	24081	50.11	0
2	24129	50.21	0
2	24177	50.31	0
2	24225	50.41	0
2	24273	50.51	0
2	24321	50.61	0
2	24369	50.71	0
2	24417	50.81	0
2	24465	50.91	0
2	24515	51.01	0
2	24563	51.11	0
2	24611	51.21	0
2	24659	51.31	0
2	24707	51.41	0
2	24755	51.51	0
2	24803	51.61	0
2	24851	51.71	0
2	24899	51.81	0
2	24947	51.91	0
2	24997	52.01	0
2	25045	52.11	0
2	25093	52.21	0
2	25141	52.31	0
2	25189	52.41	0
2	25237	52.51	0
2	25285	52.61	0
2	25333	52.71	0
2	25381	52.81	0
2	25429	52.91	0
2	25479	53.01	0
2	25527	53.11	0
2	25575	53.21	0
2	25623	53.31	0
2	25671	53.41	0
2	25719	53.51	0
2	25767	53.61	0
2	25815	53.71	0
2	25863	53.81	0
2	25911	53.91	0
2	25961	54.01	0
2	26009	54.11	0
2	26057	54.21	0
2	26105	54.31	0
2	26153	54.41	0
2	26201	54.51	0
2	26249	54.61	0
2	26297	54.71	0
2	26345	54.81	0
2	26393	54.91	0
2	26443	55.01	0
2	26491	55.11	0
2	26539	55.21	0
2	26587	55.31	0
2	26635	55.41	0
2	26683	55.51	0
2	26731	55.61	0
2	26779	55.71	0
2	26827	55.81	0
2	26875	55.91	0
2	26925	56.01	0
2	26973	56.11	0
2	27021	56.21	0
2	27069	56.31	0
2	27117	56.41	0
2	27165	56.51	0
2	27213	56.61	0
2	27261	56.71	0
2	27309	56.81	0
2	27357	56.91	0
2	27407	57.01	0
2	27455	57.11	0
2	27503	57.21	0
2	27551	57.31	0
2	27599	57.41	0
2	27647	57.51	0
2	27695	57.61	0
2	27743	57.71	0
2	27791	57.81	0
2	27839	57.91	0
2	27889	58.01	0
2	27937	58.11	0
2	27985	58.21	0
2	28033	58.31	0
2	28081	58.41	0
2	28129	58.51	0
2	28177	58.61	0
2	28225	58.71	0
2	28273	58.81	0
2	28321	58.91	0
2	28371	59.01	0
2	28419	59.11	0
2	28467	59.21	0
2	28515	59.31	0
2	28563	59.41	0
2	28611	59.51	0
2	28659	59.61	0
2	28707	59.71	0
2	28755	59.81	0
2	28803	59.91	0
2	28853	60.01	0
2	28901	60.11	0
2	28949	60.21	0
2	28997	60.31	0
2	29045	60.41	0
2	29093	60.51	0
2	29141	60.61	0
2	29189	60.71	0
2	29237	60.81	0
2	29285	60.91	0
2	29335	61.01	0
2	29383	61.11	0
2	29431	61.21	0
2	29479	61.31	0
2	29527	61.41	0
2	29575	61.51	0
2	29623	61.61	0
2	29671	61.71	0
2	29719	61.81	0
2	29767	61.91	0
2	29817	62.01	0
2	29865	62.11	0
2	29913	62.21	0
2	29961	62.31	0
2	30009	62.41	0
2	30057	62.51	0
2	30105	62.61	0
2	30153	62.71	0
2	30201	62.81	0
2	30249	62.91	0
2	30299	63.01	0
2	30347	63.11	0
2	30395	63.21	0
2	30443	63.31	0
2	30491	63.41	0
2	30539	63.51	0
2	30587	63.61	0
2	30635	63.71	0
2	30683	63.81	0
2	30731	63.91	0
2	30781	64.01	0
2	30829	64.11	0
2	30877	64.21	0
2	30925	64.31	0
2	30973	64.41	0
2	31021	64.51	0
2	31069	64.61	0
2	31117	64.71	0
2	31165	64.81	0
2	31213	64.91	0
2	31263	65.01	0
2	31311	65.11	0
2	31359	65.21	0
2	31407	65.31	0
2	31455	65.41	0
2	31503	65.51	0
2	31551	65.61	0
2	31599	65.71	0
2	31647	65.81	0
2	31695	65.91	0
2	31745	66.01	0
2	31793	66.11	0
2	31841	66.21	0
2	31889	66.31	0
2	31937	66.41	0
2	31985	66.51	0
2	32033	66.61	0
2	32081	66.71	0
2	32129	66.81	0
2	32177	66.91	0
2	32227	67.01	0
2	32275	67.11	0
2	32323	67.21	0
2	32371	67.31	0
2	32419	67.41	0
2	32467	67.51	0
2	32515	67.61	0
2	32563	67.71	0
2	32611	67.81	0
2	32659	67.91	0
2	32709	68.01	0
2	32757	68.11	0
2	32805	68.21	0
2	32853	68.31	0
2	32901	68.41	0
2	32949	68.51	0
2	32997	68.61	0
2	33045	68.71	0
2	33093	68.81	0
2	33141	68.91	0
2	33191	69.01	0
2	33239	69.11	0
2	33287	69.21	0
2	33335	69.31	0
2	33383	69.41	0
2	33431	69.51	0
2	33479	69.61	0
2	33527	69.71	0
2	33575	69.81	0
2	33623	69.91	0
2	33673	70.01	0
2	33721	70.11	0
2	33769	70.21	0
2	33817	70.31	0
2	33865	70.41	0
2	33913	70.51	0
2	33961	70.61	0
2	34009	70.71	0
2	34057	70.81	0
2	34105	70.91	0
2	34155	71.01	0
2	34203	71.11	0
2	34251	71.21	0
2	34299	71.31	0
2	34347	71.41	0
2	34395	71.51	0
2	34443	71.61	0
2	34491	71.71	0
2	34539	71.81	0
2	34587	71.91	0
2	34637	72.01	0
2	34685	72.11	0
2	34733	72.21	0
2	34781	72.31	0
2	34829	72.41	0
2	34877	72.51	0
2	34925	72.61	0
2	34973	72.71	0
2	35021	72.81	0
2	35069	72.91	0
2	35119	73.01	0
2	35167	73.11	0
2	35215	73.21	0
2	35263	73.31	0
2	35311	73.41	0
2	35359	73.51	0
2	35407	73.61	0
2	35455	73.71	0
2	35503	73.81	0
2	35551	73.91	0
2	35601	74.01	0
2	35649	74.11	0
2	35697	74.21	0
2	35745	74.31	0
2	35793	74.41	0
2	35841	74.51	0
2	35889	74.61	0
2	35937	74.71	0
2	35985	74.81	0
2	36033	74.91	0
2	36083	75.01	0
2	36131	75.11	0
2	36179	75.21	0
2	36227	75.31	0
2	36275	75.41	0
2	36323	75.51	0
2	36371	75.61	0
2	36419	75.71	0
2	36467	75.81	0
2	36515	75.91	0
2	36565	76.01	0
2	36613	76.11	0
2	36661	76.21	0
2	36709	76.31	0
2	36757	76.41	0
2	36805	76.51	0
2	36853	76.61	0
2	36901	76.71	0
2	36949	76.81	0
2	36997	76.91	0
2	37047	77.01	0
2	37095	77.11	0
2	37143	77.21	0
2	37191	77.31	0
2	37239	77.41	0
2	37287	77.51	0
2	37335	77.61	0
2	37383	77.71	0
2	37431	77.81	0
2	37479	77.91	0
2	37529	78.01	0
2	37577	78.11	0
2	37625	78.21	0
2	37673	78.31	0
2	37721	78.41	0
2	37769	78.51	0
2	37817	78.61	0
2	37865	78.71	0
2	37913	78.81	0
2	37961	78.91	0
2	38011	79.01	0
2	38059	79.11	0
2	38107	79.21	0
2	38155	79.31	0
2	38203	79.41	0
2	38251	79.51	0
2	38299	79.61	0
2	38347	79.71	0
2	38395	79.81	0
2	38443	79.91	0
2	38493	80.01	0
2	38541	80.11	0
2	38589	80.21	0
2	38637	80.31	0
2	38685	80.41	0
2	38733	80.51	0
2	38781	80.61	0
2	38829	80.71	0
2	38877	80.81	0
2	38925	80.91	0
2	38975	81.01	0
2	39023	81.11	0
2	39071	81.21	0
2	39119	81.31	0
2	39167	81.41	0
2	39215	81.51	0
2	39263	81.61	0
2	39311	81.71	0
2	39359	81.81	0
2	39407	81.91	0
2	39457	82.01	0
2	39505	82.11	0
2	39553	82.21	0
2	39601	82.31	0
2	39649	82.41	0
2	39697	82.51	0
2	39745	82.61	0
2	39793	82.71	0
2	39841	82.81	0
2	39889	82.91	0
2	39939	83.01	0
2	39987	83.11	0
2	40035	83.21	0
2	40083	83.31	0
2	40131	83.41	0
2	40179	83.51	0
2	40227	83.61	0
2	40275	83.71	0
2	40323	83.81	0
2	40371	83.91	0
2	40421	84.01	0
2	40469	84.11	0
2	40517	84.21	0
2	40565	84.31	0
2	40613	84.41	0
2	40661	84.51	0
2	40709	84.61	0
2	40757	84.71	0
2	40805	84.81	0
2	40853	84.91	0
2	40903	85.01	0
2	40951	85.11	0
2	40999	85.21	0
2	41047	85.31	0
2	41095	85.41	0
2	41143	85.51	0
2	41191	85.61	0
2	41239	85.71	0
2	41287	85.81	0
2	41335	85.91	0
2	41385	86.01	0
2	41433	86.11	0
2	41481	86.21	0
2	41529	86.31	0
2	41577	86.41	0
2	41625	86.51	0
2	41673	86.61	0
2	41721	86.71	0
2	41769	86.81	0
2	41817	86.91	0
2	41867	87.01	0
2	41915	87.11	0
2	41963	87.21	0
2	42011	87.31	0
2	42059	87.41	0
2	42107	87.51	0
2	42155	87.61	0
2	42203	87.71	0
2	42251	87.81	0
2	42299	87.91	0
2	42349	88.01	0
2	42397	88.11	0
2	42445	88.21	0
2	42493	88.31	0
2	42541	88.41	0
2	42589	88.51	0
2	42637	88.61	0
2	42685	88.71	0
2	42733	88.81	0
2	42781	88.91	0
2	42831	89.01	0
2	42879	89.11	0
2	42927	89.21	0
2	42975	89.31	0
2	43023	89.41	0
2	43071	89.51	0
2	43119	89.61	0
2	43167	89.71	0
2	43215	89.81	0
2	43263	89.91	0
2	43313	90.01	0
2	43361	90.11	0
2	43409	90.21	0
2	43457	90.31	0
2	43505	90.41	0
2	43553	90.51	0
2	43601	90.61	0
2	43649	90.71	0
2	43697	90.81	0
2	43745	90.91	0
2	43795	91.01	0
2	43843	91.11	0
2	43891	91.21	0
2	43939	91.31	0
2	43987	91.41	0
2	44035	91.51	0
2	44083	91.61	0
2	44131	91.71	0
2	44179	91.81	0
2	44227	91.91	0
2	44277	92.01	0
2	44325	92.11	0
2	44373	92.21	0
2	44421	92.31	0
2	44469	92.41	0
2	44517	92.51	0
2	44565	92.61	0
2	44613	92.71	0
2	44661	92.81	0
2	44709	92.91	0
2	44759	93.01	0
2	44807	93.11	0
2	44855	93.21	0
2	44903	93.31	0
2	44951	93.41	0
2	44999	93.51	0
2	45047	93.61	0
2	45095	93.71	0
2	45143	93.81	0
2	45191	93.91	0
2	45241	94.01	0
2	45289	94.11	0
2	45337	94.21	0
2	45385	94.31	0
2	45433	94.41	0
2	45481	94.51	0
2	45529	94.61	0
2	45577	94.71	0
2	45625	94.81	0
2	45673	94.91	0
2	45723	95.01	0
2	45771	95.11	0
2	45819	95.21	0
2	45867	95.31	0
2	45915	95.41	0
2	45963	95.51	0
2	46011	95.61	0
2	46059	95.71	0
2	46107	95.81	0
2	46155	95.91	0
2	46205	96.01	0
2	46253	96.11	0
2	46301	96.21	0
2	46349	96.31	0
2	46397	96.41	0
2	46445	96.51	0
2	46493	96.61	0
2	46541	96.71	0
2	46589	96.81	0
2	46637	96.91	0
2	46687	97.01	0
2	46735	97.11	0
2	46783	97.21	0
2	46831	97.31	0
2	46879	97.41	0
2	46927	97.51	0
2	46975	97.61	0
2	47023	97.71	0
2	47071	97.81	0
2	47119	97.91	0
2	47169	98.01	0
2	47217	98.11	0
2	47265	98.21	0
2	47313	98.31	0
2	47361	98.41	0
2	47409	98.51	0
2	47457	98.61	0
2	47505	98.71	0
2	47553	98.81	0
2	47601	98.91	0
2	47651	99.01	0
2	47699	99.11	0
2	47747	99.21	0
2	47795	99.31	0
2	47843	99.41	0
2	47891	99.51	0
2	47939	99.61	0
2	47987	99.71	0
2	48035	99.81	0
2	48083	99.91	0
3	113	1.11	-0.000716383
3	161	1.21	-0.00136341
3	209	1.31	-0.00186974
3	257	1.41	-0.00225157
3	305	1.51	-0.00252443
3	353	1.61	-0.00270298
3	401	1.71	-0.00280098
3	449	1.81	-0.00283113
3	497	1.91	-0.00280509
3	547	2.01	-0.00273342
3	595	2.11	-0.00262559
3	643	2.21	-0.00249005
3	691	2.31	-0.00233419
3	739	2.41	-0.00216447
3	787	2.51	-0.00198642
3	835	2.61	-0.00180472
3	883	2.71	-0.0016233
3	931	2.81	-0.00144536
3	979	2.91	-0.00127346
3	1029	3.01	-0.0011096
3	1077	3.11	-0.000955278
3	1125	3.21	-0.000811546
3	1173	3.31	-0.00067908
3	1221	3.41	-0.000558232
3	1269	3.51	-0.000449082
3	1317	3.61	-0.000351487
3	1365	3.71	-0.00026512
3	1413	3.81	-0.000189514
3	1461	3.91	-0.000124092
3	1511	4.01	-6.81972e-05
3	1559	4.11	-2.11209e-05
3	1607	4.21	1.78769e-05
3	1655	4.31	4.9548e-05
3	1703	4.41	7.46407e-05
3	1751	4.51	9.38867e-05
3	1799	4.61	0.000107991
3	1847	4.71	0.000117625
3	1895	4.81	0.000123418
3	1943	4.91	0.000125957
3	1993	5.01	0.000125781
3	2041	5.11	0.00012338
3	2089	5.21	0.000119198
3	2137	5.31	0.000113629
3	2185	5.41	0.000107022
3	2233	5.51	9.96832e-05
3	2281	5.61	9.18747e-05
3	2329	5.71	8.38211e-05
3	2377	5.81	7.57109e-05
3	2425	5.91	6.76999e-05
3	2475	6.01	5.99137e-05
3	2523	6.11	5.24518e-05
3	2571	6.21	4.53896e-05
3	2619	6.31	3.87821e-05
3	2667	6.41	3.2666e-05
3	2715	6.51	2.70628e-05
3	2763	6.61	2.19809e-05
3	2811	6.71	1.74176e-05
3	2859	6.81	1.33618e-05
3	2907	6.91	9.79494e-06
3	2957	7.01	6.6932e-06
3	3005	7.11	4.02864e-06
3	3053	7.21	1.77051e-06
3	3101	7.31	-1.13691e-07
3	3149	7.41	-1.65736e-06
3	3197	7.51	-2.89397e-06
3	3245	7.61	-3.85652e-06
3	3293	7.71	-4.57698e-06
3	3341	7.81	-5.08591e-06
3	3389	7.91	-5.41219e-06
3	3439	8.01	-5.58279e-06
3	3487	8.11	-5.6226e-06
3	3535	8.21	-5.55442e-06
3	3583	8.31	-5.39886e-06
3	3631	8.41	-5.17441e-06
3	3679	8.51	-4.89748e-06
3	3727	8.61	-4.58246e-06
3	3775	8.71	-4.24184e-06
3	3823	8.81	-3.88634e-06
3	3871	8.91	-3.52499e-06
3	3921	9.01	-3.16534e-06
3	3969	9.11	-2.81353e-06
3	4017	9.21	-2.47446e-06
3	4065	9.31	-2.15192e-06
3	4113	9.41	-1.84873e-06
3	4161	9.51	-1.56685e-06
3	4209	9.61	-1.30751e-06
3	4257	9.71	-1.0713e-06
3	4305	9.81	-8.58321e-07
3	4353	9.91	-6.68206e-07
3	4423	10.01	-5.0026e-07
3	4472	10.11	-3.53514e-07
3	4521	10.21	-2.2679e-07
3	4570	10.31	-1.18765e-07
3	4619	10.41	-2.80163e-08
3	4668	10.51	4.6931e-08
3	4717	10.61	1.07573e-07
3	4766	10.71	1.55391e-07
3	4815	10.81	1.91831e-07
3	4864	10.91	2.18284e-07
3	4915	11.01	2.3607e-07
3	4964	11.11	2.46427e-07
3	5013	11.21	2.50502e-07
3	5062	11.31	2.49353e-07
3	5111	11.41	2.43938e-07
3	5160	11.51	2.3512e-07
3	5209	11.61	2.23669e-07
3	5258	11.71	2.10264e-07
3	5307	11.81	1.95496e-07
3	5356	11.91	1.79874e-07
3	5407	12.01	1.63833e-07
3	5456	12.11	1.47736e-07
3	5505	12.21	1.3188e-07
3	5554	12.31	1.16508e-07
3	5603	12.41	1.01807e-07
3	5652	12.51	8.79222e-08
3	5701	12.61	7.49541e-08
3	5750	12.71	6.29711e-08
3	5799	12.81	5.20114e-08
3	5848	12.91	4.20883e-08
3	5899	13.01	3.3193e-08
3	5948	13.11	2.53003e-08
3	5997	13.21	1.83718e-08
3	6046	13.31	1.23581e-08
3	6095	13.41	7.20348e-09
3	6144	13.51	2.84537e-09
3	6193	13.61	-7.80886e-10
3	6242	13.71	-3.74136e-09
3	6291	13.81	-6.10285e-09
3	6340	13.91	-7.93072e-09
3	6391	14.01	-9.28821e-09
3	6440	14.11	-1.0235e-08
3	6489	14.21	-1.08283e-08
3	6538	14.31	-1.11211e-08
3	6587	14.41	-1.11612e-08
3	6636	14.51	-1.09946e-08
3	6685	14.61	-1.06599e-08
3	6734	14.71	-1.01945e-08
3	6783	14.81	-9.62999e-09
3	6832	14.91	-8.99405e-09
3	6883	15.01	-8.31086e-09
3	6932	15.11	-7.60103e-09
3	6981	15.21	-6.88338e-09
3	7030	15.31	-6.17071e-09
3	7079	15.41	-5.47544e-09
3	7128	15.51	-4.80682e-09
3	7177	15.61	-4.17266e-09
3	7226	15.71	-3.57687e-09
3	7275	15.81	-3.02443e-09
3	7324	15.91	-2.51674e-09
3	7375	16.01	-2.05489e-09
3	7424	16.11	-1.63958e-09
3	7473	16.21	-1.26903e-09
3	7522	16.31	-9.42535e-10
3	7571	16.41	-6.57963e-10
3	7620	16.51	-4.1247e-10
3	7669	16.61	-2.04636e-10
3	7718	16.71	-2.91323e-11
3	7767	16.81	1.14753e-10
3	7816	16.91	2.30926e-10
3	7867	17.01	3.22231e-10
3	7916	17.11	3.91154e-10
3	7965	17.21	4.40892e-10
3	8014	17.31	4.73577e-10
3	8063	17.41	4.92051e-10
3	8112	17.51	4.98446e-10
3	8161	17.61	4.94893e-10
3	8210	17.71	4.82814e-10
3	8259	17.81	4.6434e-10
3	8308	17.91	4.40892e-10
3	8359	18.01	4.13536e-10
3	8408	18.11	3.83693e-10
3	8457	18.21	3.51719e-10
3	8506	18.31	3.19744e-10
3	8555	18.41	2.8777e-10
3	8604	18.51	2.55795e-10
3	8653	18.61	2.25953e-10
3	8702	18.71	1.97531e-10
3	8751	18.81	1.6982e-10
3	8800	18.91	1.44951e-10
3	8851	19.01	1.21503e-10
3	8900	19.11	1.00187e-10
3	8949	19.21	8.10019e-11
3	8998	19.31	6.32383e-11
3	9047	19.41	4.86722e-11
3	9096	19.51	3.44613e-11
3	9145	19.61	2.34479e-11
3	9194	19.71	1.27898e-11
3	9243	19.81	4.9738e-12
3	9292	19.91	-2.13163e-12
3	9343	20.01	-8.17124e-12
3	9392	20.11	-1.1724e-11
3	9441	20.21	-1.52767e-11
3	9490	20.31	-1.88294e-11
3	9539	20.41	-2.02505e-11
3	9588	20.51	-2.02505e-11
3	9637	20.61	-2.02505e-11
3	9686	20.71	-2.02505e-11
3	9735	20.81	-2.02505e-11
3	9784	20.91	-2.02505e-11
3	9835	21.01	-2.02505e-11
3	9884	21.11	-2.02505e-11
3	9933	21.21	-2.02505e-11
3	9982	21.31	-1.88294e-11
3	10031	21.41	-1.7053e-11
3	10080	21.51	-1.52767e-11
3	10129	21.61	-1.38556e-11
3	10178	21.71	-1.24345e-11
3	10227	21.81	-1.13687e-11
3	10276	21.91	-1.03029e-11
3	10327	22.01	-9.23706e-12
3	10376	22.11	-8.52651e-12
3	10425	22.21	-7.4607e-12
3	10474	22.31	-6.75016e-12
3	10523	22.41	-6.03961e-12
3	10572	22.51	-5.68434e-12
3	10621	22.61	-4.9738e-12
3	10670	22.71	-4.61853e-12
3	10719	22.81	-4.26326e-12
3	10768	22.91	-3.90799e-12
3	10819	23.01	-3.55271e-12
3	10868	23.11	-3.19744e-12
3	10917	23.21	-2.84217e-12
3	10966	23.31	-2.4869e-12
3	11015	23.41	-2.13163e-12
3	11064	23.51	-2.13163e-12
3	11113	23.61	-1.77636e-12
3	11162	23.71	-1.77636e-12
3	11211	23.81	-1.42109e-12
3	11260	23.91	-1.42109e-12
3	11311	24.01	-1.06581e-12
3	11360	24.11	-1.06581e-12
3	11409	24.21	-1.06581e-12
3	11458	24.31	-1.06581e-12
3	11507	24.41	-7.10543e-13
3	11556	24.51	-7.10543e-13
3	11605	24.61	-7.10543e-13
3	11654	24.71	-7.10543e-13
3	11703	24.81	-7.10543e-13
3	11752	24.91	-3.55271e-13
3	11803	25.01	-3.55271e-13
3	11852	25.11	-3.55271e-13
3	11901	25.21	-3.55271e-13
3	11950	25.31	-3.55271e-13
3	11999	25.41	-3.55271e-13
3	12048	25.51	-3.55271e-13
3	12097	25.61	-3.55271e-13
3	12146	25.71	-3.55271e-13
3	12195	25.81	-3.55271e-13
3	12244	25.91	0
3	12295	26.01	0
3	12344	26.11	0
3	12393	26.21	0
3	12442	26.31	0
3	12491	26.41	0
3	12540	26.51	0
3	12589	26.61	0
3	12638	26.71	0
3	12687	26.81	0
3	12736	26.91	0
3	12787	27.01	0
3	12836	27.11	0
3	12885	27.21	0
3	12934	27.31	0
3	12983	27.41	0
3	13032	27.51	0
3	13081	27.61	0
3	13130	27.71	0
3	13179	27.81	0
3	13228	27.91	0
3	13279	28.01	0
3	13328	28.11	0
3	13377	28.21	0
3	13426	28.31	0
3	13475	28.41	0
3	13524	28.51	0
3	13573	28.61	0
3	13622	28.71	0
3	13671	28.81	0
3	13720	28.91	0
3	13771	29.01	0
3	13820	29.11	0
3	13869	29.21	0
3	13918	29.31	0
3	13967	29.41	0
3	14016	29.51	0
3	14065	29.61	0
3	14114	29.71	0
3	14163	29.81	0
3	14212	29.91	0
3	14263	30.01	0
3	14312	30.11	0
3	14361	30.21	0
3	14410	30.31	0
3	14459	30.41	0
3	14508	30.51	0
3	14557	30.61	0
3	14606	30.71	0
3	14655	30.81	0
3	14704	30.91	0
3	14755	31.01	0
3	14804	31.11	0
3	14853	31.21	0
3	14902	31.31	0
3	14951	31.41	0
3	15000	31.51	0
3	15049	31.61	0
3	15098	31.71	0
3	15147	31.81	0
3	15196	31.91	0
3	15247	32.01	0
3	15296	32.11	0
3	15345	32.21	0
3	15394	32.31	0
3	15443	32.41	0
3	15492	32.51	0
3	15541	32.61	0
3	15590	32.71	0
3	15639	32.81	0
3	15688	32.91	0
3	15739	33.01	0
3	15788	33.11	0
3	15837	33.21	0
3	15886	33.31	0
3	15935	33.41	0
3	15984	33.51	0
3	16033	33.61	0
3	16082	33.71	0
3	16131	33.81	0
3	16180	33.91	0
3	16231	34.01	0
3	16280	34.11	0
3	16329	34.21	0
3	16378	34.31	0
3	16427	34.41	0
3	16476	34.51	0
3	16525	34.61	0
3	16574	34.71	0
3	16623	34.81	0
3	16672	34.91	0
3	16723	35.01	0
3	16772	35.11	0
3	16821	35.21	0
3	16870	35.31	0
3	16919	35.41	0
3	16968	35.51	0
3	17017	35.61	0
3	17066	35.71	0
3	17115	35.81	0
3	17164	35.91	0
3	17215	36.01	0
3	17264	36.11	0
3	17313	36.21	0
3	17362	36.31	0
3	17477	36.41	0
3	17525	36.51	0
3	17573	36.61	0
3	17621	36.71	0
3	17669	36.81	0
3	17717	36.91	0
3	17767	37.01	0
3	17815	37.11	0
3	17863	37.21	0
3	17911	37.31	0
3	17959	37.41	0
3	18007	37.51	0
3	18055	37.61	0
3	18103	37.71	0
3	18151	37.81	0
3	18199	37.91	0
3	18249	38.01	0
3	18297	38.11	0
3	18345	38.21	0
3	18393	38.31	0
3	18441	38.41	0
3	18489	38.51	0
3	18537	38.61	0
3	18585	38.71	0
3	18633	38.81	0
3	18681	38.91	0
3	18731	39.01	0
3	18779	39.11	0
3	18827	39.21	0
3	18875	39.31	0
3	18923	39.41	0
3	18971	39.51	0
3	19019	39.61	0
3	19067	39.71	0
3	19115	39.81	0
3	19163	39.91	0
3	19213	40.01	0
3	19261	40.11	0
3	19309	40.21	0
3	19357	40.31	0
3	19405	40.41	0
3	19453	40.51	0
3	19501	40.61	0
3	19549	40.71	0
3	19597	40.81	0
3	19645	40.91	0
3	19695	41.01	0
3	19743	41.11	0
3	19791	41.21	0
3	19839	41.31	0
3	19887	41.41	0
3	19935	41.51	0
3	19983	41.61	0
3	20031	41.71	0
3	20079	41.81	0
3	20127	41.91	0
3	20177	42.01	0
3	20225	42.11	0
3	20273	42.21	0
3	20321	42.31	0
3	20369	42.41	0
3	20417	42.51	0
3	20465	42.61	0
3	20513	42.71	0
3	20561	42.81	0
3	20609	42.91	0
3	20659	43.01	0
3	20707	43.11	0
3	20755	43.21	0
3	20803	43.31	0
3	20851	43.41	0
3	20899	43.51	0
3	20947	43.61	0
3	20995	43.71	0
3	21043	43.81	0
3	21091	43.91	0
3	21141	44.01	0
3	21189	44.11	0
3	21237	44.21	0
3	21285	44.31	0
3	21333	44.41	0
3	21381	44.51	0
3	21429	44.61	0
3	21477	44.71	0
3	21525	44.81	0
3	21573	44.91	0
3	21623	45.01	0
3	21671	45.11	0
3	21719	45.21	0
3	21767	45.31	0
3	21815	45.41	0
3	21863	45.51	0
3	21911	45.61	0
3	21959	45.71	0
3	22007	45.81	0
3	22055	45.91	0
3	22105	46.01	0
3	22153	46.11	0
3	22201	46.21	0
3	22249	46.31	0
3	22297	46.41	0
3	22345	46.51	0
3	22393	46.61	0
3	22441	46.71	0
3	22489	46.81	0
3	22537	46.91	0
3	22587	47.01	0
3	22635	47.11	0
3	22683	47.21	0
3	22731	47.31	0
3	22779	47.41	0
3	22827	47.51	0
3	22875	47.61	0
3	22923	47.71	0
3	22971	47.81	0
3	23019	47.91	0
3	23069	48.01	0
3	23117	48.11	0
3	23165	48.21	0
3	23213	48.31	0
3	23261	48.41	0
3	23309	48.51	0
3	23357	48.61	0
3	23405	48.71	0
3	23453	48.81	0
3	23501	48.91	0
3	23551	49.01	0
3	23599	49.11	0
3	23647	49.21	0
3	23695	49.31	0
3	23743	49.41	0
3	23791	49.51	0
3	23839	49.61	0
3	23887	49.71	0
3	23935	49.81	0
3	23983	49.91	0
3	24033	50.01	0
3	24081	50.11	0
3	24129	50.21	0
3	24177	50.31	0
3	24225	50.41	0
3	24273	50.51	0
3	24321	50.61	0
3	24369	50.71	0
3	24417	50.81	0
3	24465	50.91	0
3	24515	51.01	0
3	24563	51.11	0
3	24611	51.21	0
3	24659	51.31	0
3	24707	51.41	0
3	24755	51.51	0
3	24803	51.61	0
3	24851	51.71	0
3	24899	51.81	0
3	24947	51.91	0
3	24997	52.01	0
3	25045	52.11	0
3	25093	52.21	0
3	25141	52.31	0
3	25189	52.41	0
3	25237	52.51	0
3	25285	52.61	0
3	25333	52.71	0
3	25381	52.81	0
3	25429	52.91	0
3	25479	53.01	0
3	25527	53.11	0
3	25575	53.21	0
3	25623	53.31	0
3	25671	53.41	0
3	25719	53.51	0
3	25767	53.61	0
3	25815	53.71	0
3	25863	53.81	0
3	25911	53.91	0
3	25961	54.01	0
3	26009	54.11	0
3	26057	54.21	0
3	26105	54.31	0
3	26153	54.41	0
3	26201	54.51	0
3	26249	54.61	0
3	26297	54.71	0
3	26345	54.81	0
3	26393	54.91	0
3	26443	55.01	0
3	26491	55.11	0
3	26539	55.21	0
3	26587	55.31	0
3	26635	55.41	0
3	26683	55.51	0
3	26731	55.61	0
3	26779	55.71	0
3	26827	55.81	0
3	26875	55.91	0
3	26925	56.01	0
3	26973	56.11	0
3	27021	56.21	0
3	27069	56.31	0
3	27117	56.41	0
3	27165	56.51	0
3	27213	56.61	0
3	27261	56.71	0
3	27309	56.81	0
3	27357	56.91	0
3	27407	57.01	0
3	27455	57.11	0
3	27503	57.21	0
3	27551	57.31	0
3	27599	57.41	0
3	27647	57.51	0
3	27695	57.61	0
3	27743	57.71	0
3	27791	57.81	0
3	27839	57.91	0
3	27889	58.01	0
3	27937	58.11	0
3	27985	58.21	0
3	28033	58.31	0
3	28081	58.41	0
3	28129	58.51	0
3	28177	58.61	0
3	28225	58.71	0
3	28273	58.81	0
3	28321	58.91	0
3	28371	59.01	0
3	28419	59.11	0
3	28467	59.21	0
3	28515	59.31	0
3	28563	59.41	0
3	28611	59.51	0
3	28659	59.61	0
3	28707	59.71	0
3	28755	59.81	0
3	28803	59.91	0
3	28853	60.01	0
3	28901	60.11	0
3	28949	60.21	0
3	28997	60.31	0
3	29045	60.41	0
3	29093	60.51	0
3	29141	60.61	0
3	29189	60.71	0
3	29237	60.81	0
3	29285	60.91	0
3	29335	61.01	0
3	29383	61.11	0
3	29431	61.21	0
3	29479	61.31	0
3	29527	61.41	0
3	29575	61.51	0
3	29623	61.61	0
3	29671	61.71	0
3	29719	61.81	0
3	29767	61.91	0
3	29817	62.01	0
3	29865	62.11	0
3	29913	62.21	0
3	29961	62.31	0
3	30009	62.41	0
3	30057	62.51	0
3	30105	62.61	0
3	30153	62.71	0
3	30201	62.81	0
3	30249	62.91	0
3	30299	63.01	0
3	30347	63.11	0
3	30395	63.21	0
3	30443	63.31	0
3	30491	63.41	0
3	30539	63.51	0
3	30587	63.61	0
3	30635	63.71	0
3	30683	63.81	0
3	30731	63.91	0
3	30781	64.01	0
3	30829	64.11	0
3	30877	64.21	0
3	30925	64.31	0
3	30973	64.41	0
3	31021	64.51	0
3	31069	64.61	0
3	31117	64.71	0
3	31165	64.81	0
3	31213	64.91	0
3	31263	65.01	0
3	31311	65.11	0
3	31359	65.21	0
3	31407	65.31	0
3	31455	65.41	0
3	31503	65.51	0
3	31551	65.61	0
3	31599	65.71	0
3	31647	65.81	0
3	31695	65.91	0
3	31745	66.01	0
3	31793	66.11	0
3	31841	66.21	0
3	31889	66.31	0
3	31937	66.41	0
3	31985	66.51	0
3	32033	66.61	0
3	32081	66.71	0
3	32129	66.81	0
3	32177	66.91	0
3	32227	67.01	0
3	32275	67.11	0
3	32323	67.21	0
3	32371	67.31	0
3	32419	67.41	0
3	32467	67.51	0
3	32515	67.61	0
3	32563	67.71	0
3	32611	67.81	0
3	32659	67.91	0
3	32709	68.01	0
3	32757	68.11	0
3	32805	68.21	0
3	32853	68.31	0
3	32901	68.41	0
3	32949	68.51	0
3	32997	68.61	0
3	33045	68.71	0
3	33093	68.81	0
3	33141	68.91	0
3	33191	69.01	0
3	33239	69.11	0
3	33287	69.21	0
3	33335	69.31	0
3	33383	69.41	0
3	33431	69.51	0
3	33479	69.61	0
3	33527	69.71	0
3	33575	69.81	0
3	33623	69.91	0
3	33673	70.01	0
3	33721	70.11	0
3	33769	70.21	0
3	33817	70.31	0
3	33865	70.41	0
3	33913	70.51	0
3	33961	70.61	0
3	34009	70.71	0
3	34057	70.81	0
3	34105	70.91	0
3	34155	71.01	0
3	34203	71.11	0
3	34251	71.21	0
3	34299	71.31	0
3	34347	71.41	0
3	34395	71.51	0
3	34443	71.61	0
3	34491	71.71	0
3	34539	71.81	0
3	34587	71.91	0
3	34637	72.01	0
3	34685	72.11	0
3	34733	72.21	0
3	34781	72.31	0
3	34829	72.41	0
3	34877	72.51	0
3	34925	72.61	0
3	34973	72.71	0
3	35021	72.81	0
3	35069	72.91	0
3	35119	73.01	0
3	35167	73.11	0
3	35215	73.21	0
3	35263	73.31	0
3	35311	73.41	0
3	35359	73.51	0
3	35407	73.61	0
3	35455	73.71	0
3	35503	73.81	0
3	35551	73.91	0
3	35601	74.01	0
3	35649	74.11	0
3	35697	74.21	0
3	35745	74.31	0
3	35793	74.41	0
3	35841	74.51	0
3	35889	74.61	0
3	35937	74.71	0
3	35985	74.81	0
3	36033	74.91	0
3	36083	75.01	0
3	36131	75.11	0
3	36179	75.21	0
3	36227	75.31	0
3	36275	75.41	0
3	36323	75.51	0
3	36371	75.61	0
3	36419	75.71	0
3	36467	75.81	0
3	36515	75.91	0
3	36565	76.01	0
3	36613	76.11	0
3	36661	76.21	0
3	36709	76.31	0
3	36757	76.41	0
3	36805	76.51	0
3	36853	76.61	0
3	36901	76.71	0
3	36949	76.81	0
3	36997	76.91	0
3	37047	77.01	0
3	37095	77.11	0
3	37143	77.21	0
3	37191	77.31	0
3	37239	77.41	0
3	37287	77.51	0
3	37335	77.61	0
3	37383	77.71	0
3	37431	77.81	0
3	37479	77.91	0
3	37529	78.01	0
3	37577	78.11	0
3	37625	78.21	0
3	37673	78.31	0
3	37721	78.41	0
3	37769	78.51	0
3	37817	78.61	0
3	37865	78.71	0
3	37913	78.81	0
3	37961	78.91	0
3	38011	79.01	0
3	38059	79.11	0
3	38107	79.21	0
3	38155	79.31	0
3	38203	79.41	0
3	38251	79.51	0
3	38299	79.61	0
3	38347	79.71	0
3	38395	79.81	0
3	38443	79.91	0
3	38493	80.01	0
3	38541	80.11	0
3	38589	80.21	0
3	38637	80.31	0
3	38685	80.41	0
3	38733	80.51	0
3	38781	80.61	0
3	38829	80.71	0
3	38877	80.81	0
3	38925	80.91	0
3	38975	81.01	0
3	39023	81.11	0
3	39071	81.21	0
3	39119	81.31	0
3	39167	81.41	0
3	39215	81.51	0
3	39263	81.61	0
3	39311	81.71	0
3	39359	81.81	0
3	39407	81.91	0
3	39457	82.01	0
3	39505	82.11	0
3	39553	82.21	0
3	39601	82.31	0
3	39649	82.41	0
3	39697	82.51	0
3	39745	82.61	0
3	39793	82.71	0
3	39841	82.81	0
3	39889	82.91	0
3	39939	83.01	0
3	39987	83.11	0
3	40035	83.21	0
3	40083	83.31	0
3	40131	83.41	0
3	40179	83.51	0
3	40227	83.61	0
3	40275	83.71	0
3	40323	83.81	0
3	40371	83.91	0
3	40421	84.01	0
3	40469	84.11	0
3	40517	84.21	0
3	40565	84.31	0
3	40613	84.41	0
3	40661	84.51	0
3	40709	84.61	0
3	40757	84.71	0
3	40805	84.81	0
3	40853	84.91	0
3	40903	85.01	0
3	40951	85.11	0
3	40999	85.21	0
3	41047	85.31	0
3	41095	85.41	0
3	41143	85.51	0
3	41191	85.61	0
3	41239	85.71	0
3	41287	85.81	0
3	41335	85.91	0
3	41385	86.01	0
3	41433	86.11	0
3	41481	86.21	0
3	41529	86.31	0
3	41577	86.41	0
3	41625	86.51	0
3	41673	86.61	0
3	41721	86.71	0
3	41769	86.81	0
3	41817	86.91	0
3	41867	87.01	0
3	41915	87.11	0
3	41963	87.21	0
3	42011	87.31	0
3	42059	87.41	0
3	42107	87.51	0
3	42155	87.61	0
3	42203	87.71	0
3	42251	87.81	0
3	42299	87.91	0
3	42349	88.01	0
3	42397	88.11	0
3	42445	88.21	0
3	42493	88.31	0
3	42541	88.41	0
3	42589	88.51	0
3	42637	88.61	0
3	42685	88.71	0
3	42733	88.81	0
3	42781	88.91	0
3	42831	89.01	0
3	42879	89.11	0
3	42927	89.21	0
3	42975	89.31	0
3	43023	89.41	0
3	43071	89.51	0
3	43119	89.61	0
3	43167	89.71	0
3	43215	89.81	0
3	43263	89.91	0
3	43313	90.01	0
3	43361	90.11	0
3	43409	90.21	0
3	43457	90.31	0
3	43505	90.41	0
3	43553	90.51	0
3	43601	90.61	0
3	43649	90.71	0
3	43697	90.81	0
3	43745	90.91	0
3	43795	91.01	0
3	43843	91.11	0
3	43891	91.21	0
3	43939	91.31	0
3	43987	91.41	0
3	44035	91.51	0
3	44083	91.61	0
3	44131	91.71	0
3	44179	91.81	0
3	44227	91.91	0
3	44277	92.01	0
3	44325	92.11	0
3	44373	92.21	0
3	44421	92.31	0
3	44469	92.41	0
3	44517	92.51	0
3	44565	92.61	0
3	44613	92.71	0
3	44661	92.81	0
3	44709	92.91	0
3	44759	93.01	0
3	44807	93.11	0
3	44855	93.21	0
3	44903	93.31	0
3	44951	93.41	0
3	44999	93.51	0
3	45047	93.61	0
3	45095	93.71	0
3	45143	93.81	0
3	45191	93.91	0
3	45241	94.01	0
3	45289	94.11	0
3	45337	94.21	0
3	45385	94.31	0
3	45433	94.41	0
3	45481	94.51	0
3	45529	94.61	0
3	45577	94.71	0
3	45625	94.81	0
3	45673	94.91	0
3	45723	95.01	0
3	45771	95.11	0
3	45819	95.21	0
3	45867	95.31	0
3	45915	95.41	0
3	45963	95.51	0
3	46011	95.61	0
3	46059	95.71	0
3	46107	95.81	0
3	46155	95.91	0
3	46205	96.01	0
3	46253	96.11	0
3	46301	96.21	0
3	46349	96.31	0
3	46397	96.41	0
3	46445	96.51	0
3	46493	96.61	0
3	46541	96.71	0
3	46589	96.81	0
3	46637	96.91	0
3	46687	97.01	0
3	46735	97.11	0
3	46783	97.21	0
3	46831	97.31	0
3	46879	97.41	0
3	46927	97.51	0
3	46975	97.61	0
3	47023	97.71	0
3	47071	97.81	0
3	47119	97.91	0
3	47169	98.01	0
3	47217	98.11	0
3	47265	98.21	0
3	47313	98.31	0
3	47361	98.41	0
3	47409	98.51	0
3	47457	98.61	0
3	47505	98.71	0
3	47553	98.81	0
3	47601	98.91	0
3	47651	99.01	0
3	47699	99.11	0
3	47747	99.21	0
3	47795	99.31	0
3	47843	99.41	0
3	47891	99.51	0
3	47939	99.61	0
3	47987	99.71	0
3	48035	99.81	0
3	48083	99.91	0
4	113	1.11	-0.00437036
4	161	1.21	-0.00426837
4	209	1.31	-0.00410815
4	257	1.41	-0.00390303
4	305	1.51	-0.00366476
4	353	1.61	-0.00340356
4	401	1.71	-0.00312825
4	449	1.81	-0.00284628
4	497	1.91	-0.00256392
4	547	2.01	-0.0022863
4	595	2.11	-0.00201755
4	643	2.21	-0.00176089
4	691	2.31	-0.00151876
4	739	2.41	-0.00129289
4	787	2.51	-0.00108441
4	835	2.61	-0.00089393
4	883	2.71	-0.000721638
4	931	2.81	-0.000567355
4	979	2.91	-0.000430614
4	1029	3.01	-0.000310715
4	1077	3.11	-0.000206783
4	1125	3.21	-0.000117814
4	1173	3.31	-4.27149e-05
4	1221	3.41	1.96584e-05
4	1269	3.51	7.04736e-05
4	1317	3.61	0.000110896
4	1365	3.71	0.000142067
4	1413	3.81	0.00016509
4	1461	3.91	0.000181016
4	1511	4.01	0.000190834
4	1559	4.11	0.000195466
4	1607	4.21	0.00019576
4	1655	4.31	0.000192489
4	1703	4.41	0.000186354
4	1751	4.51	0.000177979
4	1799	4.61	0.000167916
4	1847	4.71	0.000156649
4	1895	4.81	0.000144597
4	1943	4.91	0.000132116
4	1993	5.01	0.000119508
4	2041	5.11	0.000107021
4	2089	5.21	9.48587e-05
4	2137	5.31	8.31796e-05
4	2185	5.41	7.21068e-05
4	2233	5.51	6.17299e-05
4	2281	5.61	5.21101e-05
4	2329	5.71	4.32839e-05
4	2377	5.81	3.52669e-05
4	2425	5.91	2.80577e-05
4	2475	6.01	2.16404e-05
4	2523	6.11	1.59878e-05
4	2571	6.21	1.1064e-05
4	2619	6.31	6.82631e-06
4	2667	6.41	3.22748e-06
4	2715	6.51	2.17307e-07
4	2763	6.61	-2.25598e-06
4	2811	6.71	-4.24448e-06
4	2859	6.81	-5.79961e-06
4	2907	6.91	-6.97134e-06
4	2957	7.01	-7.80753e-06
4	3005	7.11	-8.35346e-06
4	3053	7.21	-8.65149e-06
4	3101	7.31	-8.7408e-06
4	3149	7.41	-8.6573e-06
4	3197	7.51	-8.43352e-06
4	3245	7.61	-8.09868e-06
4	3293	7.71	-7.67874e-06
4	3341	7.81	-7.19651e-06
4	3389	7.91	-6.67185e-06
4	3439	8.01	-6.12177e-06
4	3487	8.11	-5.56072e-06
4	3535	8.21	-5.00073e-06
4	3583	8.31	-4.45164e-06
4	3631	8.41	-3.92136e-06
4	3679	8.51	-3.41601e-06
4	3727	8.61	-2.94018e-06
4	3775	8.71	-2.4971e-06
4	3823	8.81	-2.08883e-06
4	3871	8.91	-1.71644e-06
4	3921	9.01	-1.38016e-06
4	3969	9.11	-1.07955e-06
4	4017	9.21	-8.13576e-07
4	4065	9.31	-5.80794e-07
4	4113	9.41	-3.79414e-07
4	4161	9.51	-2.07408e-07
4	4209	9.61	-6.25825e-08
4	4257	9.71	5.73472e-08
4	4305	9.81	1.54703e-07
4	4353	9.91	2.31794e-07
4	4423	10.01	2.90877e-07
4	4472	10.11	3.3413e-07
4	4521	10.21	3.63618e-07
4	4570	10.31	3.81288e-07
4	4619	10.41	3.88944e-07
4	4668	10.51	3.88249e-07
4	4717	10.61	3.80715e-07
4	4766	10.71	3.67706e-07
4	4815	10.81	3.50439e-07
4	4864	10.91	3.29989e-07
4	4915	11.01	3.07294e-07
4	4964	11.11	2.83164e-07
4	5013	11.21	2.58291e-07
4	5062	11.31	2.33253e-07
4	5111	11.41	2.0853e-07
4	5160	11.51	1.84509e-07
4	5209	11.61	1.61493e-07
4	5258	11.71	1.39716e-07
4	5307	11.81	1.19345e-07
4	5356	11.91	1.00493e-07
4	5407	12.01	8.32259e-08
4	5456	12.11	6.75676e-08
4	5505	12.21	5.35106e-08
4	5554	12.31	4.10193e-08
4	5603	12.41	3.00361e-08
4	5652	12.51	2.04874e-08
4	5701	12.61	1.22867e-08
4	5750	12.71	5.33902e-09
4	5799	12.81	-4.56524e-10
4	5848	12.91	-5.20259e-09
4	5899	13.01	-9.00258e-09
4	5948	13.11	-1.19588e-08
4	5997	13.21	-1.41693e-08
4	6046	13.31	-1.57286e-08
4	6095	13.41	-1.67255e-08
4	6144	13.51	-1.72435e-08
4	6193	13.61	-1.73589e-08
4	6242	13.71	-1.71426e-08
4	6291	13.81	-1.66573e-08
4	6340	13.91	-1.59606e-08
4	6391	14.01	-1.51029e-08
4	6440	14.11	-1.41284e-08
4	6489	14.21	-1.30754e-08
4	6538	14.31	-1.19773e-08
4	6587	14.41	-1.08614e-08
4	6636	14.51	-9.75113e-09
4	6685	14.61	-8.66542e-09
4	6734	14.71	-7.61951e-09
4	6783	14.81	-6.62475e-09
4	6832	14.91	-5.69003e-09
4	6883	15.01	-4.82103e-09
4	6932	15.11	-4.02167e-09
4	6981	15.21	-3.29372e-09
4	7030	15.31	-2.63753e-09
4	7079	15.41	-2.05205e-09
4	7128	15.51	-1.53477e-09
4	7177	15.61	-1.08287e-09
4	7226	15.71	-6.92779e-10
4	7275	15.81	-3.606e-10
4	7324	15.91	-8.13571e-11
4	7375	16.01	1.49214e-10
4	7424	16.11	3.35731e-10
4	7473	16.21	4.82459e-10
4	7522	16.31	5.94369e-10
4	7571	16.41	6.75726e-10
4	7620	16.51	7.30083e-10
4	7669	16.61	7.61702e-10
4	7718	16.71	7.73781e-10
4	7767	16.81	7.70228e-10
4	7816	16.91	7.53175e-10
4	7867	17.01	7.25819e-10
4	7916	17.11	6.90292e-10
4	7965	17.21	6.48726e-10
4	8014	17.31	6.03251e-10
4	8063	17.41	5.54934e-10
4	8112	17.51	5.05196e-10
4	8161	17.61	4.55458e-10
4	8210	17.71	4.0643e-10
4	8259	17.81	3.58824e-10
4	8308	17.91	3.13349e-10
4	8359	18.01	2.70717e-10
4	8408	18.11	2.30571e-10
4	8457	18.21	1.93623e-10
4	8506	18.31	1.59872e-10
4	8555	18.41	1.29319e-10
4	8604	18.51	1.01963e-10
4	8653	18.61	7.78044e-11
4	8702	18.71	5.64881e-11
4	8751	18.81	3.8014e-11
4	8800	18.91	2.20268e-11
4	8851	19.01	8.88178e-12
4	8900	19.11	-2.4869e-12
4	8949	19.21	-1.13687e-11
4	8998	19.31	-1.88294e-11
4	9047	19.41	-2.45137e-11
4	9096	19.51	-2.8777e-11
4	9145	19.61	-3.16192e-11
4	9194	19.71	-3.33955e-11
4	9243	19.81	-3.44613e-11
4	9292	19.91	-3.44613e-11
4	9343	20.01	-3.41061e-11
4	9392	20.11	-3.30402e-11
4	9441	20.21	-3.16192e-11
4	9490	20.31	-3.01981e-11
4	9539	20.41	-2.80664e-11
4	9588	20.51	-2.59348e-11
4	9637	20.61	-2.41585e-11
4	9686	20.71	-2.20268e-11
4	9735	20.81	-1.98952e-11
4	9784	20.91	-1.77636e-11
4	9835	21.01	-1.59872e-11
4	9884	21.11	-1.38556e-11
4	9933	21.21	-1.1724e-11
4	9982	21.31	-9.9476e-12
4	10031	21.41	-8.17124e-12
4	10080	21.51	-6.39488e-12
4	10129	21.61	-4.9738e-12
4	10178	21.71	-3.55271e-12
4	10227	21.81	-2.4869e-12
4	10276	21.91	-1.42109e-12
4	10327	22.01	-3.55271e-13
4	10376	22.11	3.55271e-13
4	10425	22.21	1.42109e-12
4	10474	22.31	2.13163e-12
4	10523	22.41	2.84217e-12
4	10572	22.51	3.19744e-12
4	10621	22.61	3.90799e-12
4	10670	22.71	4.26326e-12
4	10719	22.81	4.61853e-12
4	10768	22.91	4.9738e-12
4	10819	23.01	5.32907e-12
4	10868	23.11	5.68434e-12
4	10917	23.21	6.03961e-12
4	10966	23.31	6.39488e-12
4	11015	23.41	6.75016e-12
4	11064	23.51	6.75016e-12
4	11113	23.61	7.10543e-12
4	11162	23.71	7.10543e-12
4	11211	23.81	7.4607e-12
4	11260	23.91	7.4607e-12
4	11311	24.01	7.81597e-12
4	11360	24.11	7.81597e-12
4	11409	24.21	7.81597e-12
4	11458	24.31	7.81597e-12
4	11507	24.41	8.17124e-12
4	11556	24.51	8.17124e-12
4	11605	24.61	8.17124e-12
4	11654	24.71	8.17124e-12
4	11703	24.81	8.17124e-12
4	11752	24.91	8.52651e-12
4	11803	25.01	8.52651e-12
4	11852	25.11	8.52651e-12
4	11901	25.21	8.52651e-12
4	11950	25.31	8.52651e-12
4	11999	25.41	8.52651e-12
4	12048	25.51	8.52651e-12
4	12097	25.61	8.52651e-12
4	12146	25.71	8.52651e-12
4	12195	25.81	8.52651e-12
4	12244	25.91	8.88178e-12
4	12295	26.01	8.88178e-12
4	12344	26.11	8.88178e-12
4	12393	26.21	8.88178e-12
4	12442	26.31	8.88178e-12
4	12491	26.41	8.88178e-12
4	12540	26.51	8.88178e-12
4	12589	26.61	8.88178e-12
4	12638	26.71	8.88178e-12
4	12687	26.81	8.88178e-12
4	12736	26.91	8.88178e-12
4	12787	27.01	8.88178e-12
4	12836	27.11	8.88178e-12
4	12885	27.21	8.88178e-12
4	12934	27.31	8.88178e-12
4	12983	27.41	8.88178e-12
4	13032	27.51	8.88178e-12
4	13081	27.61	8.88178e-12
4	13130	27.71	8.88178e-12
4	13179	27.81	8.88178e-12
4	13228	27.91	8.88178e-12
4	13279	28.01	8.88178e-12
4	13328	28.11	8.88178e-12
4	13377	28.21	8.88178e-12
4	13426	28.31	8.88178e-12
4	13475	28.41	8.88178e-12
4	13524	28.51	8.88178e-12
4	13573	28.61	8.88178e-12
4	13622	28.71	8.88178e-12
4	13671	28.81	8.88178e-12
4	13720	28.91	8.88178e-12
4	13771	29.01	8.88178e-12
4	13820	29.11	8.88178e-12
4	13869	29.21	8.88178e-12
4	13918	29.31	8.88178e-12
4	13967	29.41	8.88178e-12
4	14016	29.51	8.88178e-12
4	14065	29.61	8.88178e-12
4	14114	29.71	8.88178e-12
4	14163	29.81	8.88178e-12
4	14212	29.91	8.88178e-12
[...]
19	29138	60.593970747644	1
19	29186	60.693968344485	1
19	29234	60.793965943698	1
19	29282	60.893963545283	1
19	29330	60.99397414924	1
19	29380	61.093971755569	1
19	29428	61.19396936427	1
19	29476	61.293966975343	1
19	29524	61.393964588788	1
19	29572	61.493975204605	1
19	29620	61.593972822794	1
19	29668	61.693970443355	1
19	29716	61.793968066288	1
19	29764	61.893965691593	1
19	29812	61.99396331927	1
19	29862	62.093973949319	1
19	29910	62.193971581741	1
19	29958	62.293969216535	1
19	30006	62.393966853701	1
19	30054	62.493964493239	1
19	30102	62.593975135149	1
19	30150	62.693972779431	1
19	30198	62.793970426085	1
19	30246	62.893968075111	1
19	30294	62.993965726509	1
19	30344	63.093963380279	1
19	30392	63.193974036421	1
19	30440	63.293971694935	1
19	30488	63.393969355821	1
19	30536	63.493967019079	1
19	30584	63.593964684709	1
19	30632	63.693975352711	1
19	30680	63.793973023085	1
19	30728	63.893970695831	1
19	30776	63.993968370949	1
19	30826	64.093966048439	1
19	30874	64.193963728301	1
19	30922	64.293974410535	1
19	30970	64.393972095141	1
19	31018	64.493969782119	1
19	31066	64.593967471469	1
19	31114	64.693965163191	1
19	31162	64.793962857285	1
19	31210	64.893973553751	1
19	31258	64.993971252589	1
19	31308	65.0939689538	1
19	31356	65.193966657383	1
19	31404	65.293964363338	1
19	31452	65.393975071665	1
19	31500	65.493972782364	1
19	31548	65.593970495435	1
19	31596	65.693968210878	1
19	31644	65.793965928693	1
19	31692	65.89396364888	1
19	31740	65.993974371439	1
19	31790	66.09397209637	1
19	31838	66.193969823673	1
19	31886	66.293967553348	1
19	31934	66.393965285395	1
19	31982	66.493963019814	1
19	32030	66.593973756605	1
19	32078	66.693971495768	1
19	32126	66.793969237303	1
19	32174	66.89396698121	1
19	32222	66.993964727489	1
19	32272	67.093975476141	1
19	32320	67.193973227165	1
19	32368	67.293970980561	1
19	32416	67.393968736329	1
19	32464	67.493966494469	1
19	32512	67.593964254981	1
19	32560	67.693975017865	1
19	32608	67.793972783121	1
19	32656	67.893970550749	1
19	32704	67.993968320749	1
19	32754	68.093966093121	1
19	32802	68.193963867865	1
19	32850	68.293974644981	1
19	32898	68.393972424469	1
19	32946	68.493970206329	1
19	32994	68.593967990561	1
19	33042	68.693965777165	1
19	33090	68.793963566141	1
19	33138	68.893974357489	1
19	33186	68.993972151209	1
19	33236	69.093969947301	1
19	33284	69.193967745765	1
19	33332	69.293965546601	1
19	33380	69.393963349809	1
19	33428	69.493974155389	1
19	33476	69.593971963341	1
19	33524	69.693969773665	1
19	33572	69.793967586361	1
19	33620	69.89396540143	1
19	33668	69.993963218871	1
19	33718	70.093974038684	1
19	33766	70.193971860869	1
19	33814	70.293969685426	1
19	33862	70.393967512355	1
19	33910	70.493965341656	1
19	33958	70.593963173329	1
19	34006	70.693974007374	1
19	34054	70.793971843791	1
19	34102	70.89396968258	1
19	34150	70.993967523741	1
19	34200	71.093965367274	1
19	34248	71.193963213179	1
19	34296	71.293974061456	1
19	34344	71.393971912105	1
19	34392	71.493969765126	1
19	34440	71.593967620519	1
19	34488	71.693965478284	1
19	34536	71.793963338421	1
19	34584	71.893974200931	1
19	34632	71.993972065813	1
19	34682	72.093969933067	1
19	34730	72.193967802693	1
19	34778	72.293965674691	1
19	34826	72.393963549061	1
19	34874	72.493974425803	1
19	34922	72.593972304917	1
19	34970	72.693970186403	1
19	35018	72.793968070261	1
19	35066	72.893965956491	1
19	35114	72.993963845093	1
19	35164	73.093974736067	1
19	35212	73.193972629413	1
19	35260	73.293970525131	1
19	35308	73.393968423221	1
19	35356	73.493966323683	1
19	35404	73.593964226517	1
19	35452	73.693975131723	1
19	35500	73.793973039301	1
19	35548	73.893970949251	1
19	35596	73.993968861573	1
19	35646	74.093966776267	1
19	35694	74.193964693333	1
19	35742	74.293975612771	1
19	35790	74.393973534581	1
19	35838	74.493971458763	1
19	35886	74.593969385317	1
19	35934	74.693967314243	1
19	35982	74.793965245542	1
19	36030	74.893963179213	1
19	36078	74.993974115256	1
19	36128	75.093972053671	1
19	36176	75.193969994458	1
19	36224	75.293967937617	1
19	36272	75.393965883148	1
19	36320	75.493963831051	1
19	36368	75.593974781326	1
19	36416	75.693972733973	1
19	36464	75.793970688992	1
19	36512	75.893968646383	1
19	36560	75.993966606146	1
19	36610	76.093964568281	1
19	36658	76.193975532788	1
19	36706	76.293973499667	1
19	36754	76.393971468918	1
19	36802	76.493969440541	1
19	36850	76.593967414536	1
19	36898	76.693965390903	1
19	36946	76.793963369643	1
19	36994	76.893974350755	1
19	37042	76.993972334239	1
19	37092	77.093970320095	1
19	37140	77.193968308323	1
19	37188	77.293966298923	1
19	37236	77.393964291895	1
19	37284	77.493975287239	1
19	37332	77.593973284955	1
19	37380	77.693971285043	1
19	37428	77.793969287503	1
19	37476	77.893967292335	1
19	37524	77.993965299539	1
19	37574	78.093963309115	1
19	37622	78.193974321063	1
19	37670	78.293972335383	1
19	37718	78.393970352075	1
19	37766	78.493968371139	1
19	37814	78.593966392575	1
19	37862	78.693964416383	1
19	37910	78.793975442563	1
19	37958	78.893973471115	1
19	38006	78.993971502039	1
19	38056	79.093969535335	1
19	38104	79.193967571003	1
19	38152	79.293965609043	1
19	38200	79.393963649455	1
19	38248	79.493974692239	1
19	38296	79.593972737395	1
19	38344	79.693970784924	1
19	38392	79.793968834825	1
19	38440	79.893966887098	1
19	38488	79.993964941743	1
19	38538	80.09396299876	1
19	38586	80.193974058149	1
19	38634	80.29397211991	1
19	38682	80.393970184043	1
19	38730	80.493968250548	1
19	38778	80.593966319425	1
19	38826	80.693964390674	1
19	38874	80.793975464295	1
19	38922	80.893973540288	1
19	38970	80.993971618653	1
19	39020	81.09396969939	1
19	39068	81.193967782499	1
19	39116	81.29396586798	1
19	39164	81.393963955833	1
19	39212	81.493975046058	1
19	39260	81.593973138655	1
19	39308	81.693971233625	1
19	39356	81.793969330967	1
19	39404	81.893967430681	1
19	39452	81.993965532767	1
19	39502	82.093963637225	1
19	39550	82.193974744055	1
19	39598	82.293972853257	1
19	39646	82.393970964831	1
19	39694	82.493969078777	1
19	39742	82.593967195095	1
19	39790	82.693965313785	1
19	39838	82.793963434847	1
19	39886	82.893974558281	1
19	39934	82.993972684087	1
19	39984	83.093970812265	1
19	40032	83.193968942815	1
19	40080	83.293967075737	1
19	40128	83.393965211031	1
19	40176	83.493963348697	1
19	40224	83.593974488735	1
19	40272	83.693972631145	1
19	40320	83.793970775927	1
19	40368	83.893968923081	1
19	40416	83.993967072607	1
19	40466	84.093965224505	1
19	40514	84.193963378775	1
19	40562	84.293974535417	1
19	40610	84.393972694431	1
19	40658	84.493970855817	1
19	40706	84.593969019576	1
19	40754	84.693967185707	1
19	40802	84.79396535421	1
19	40850	84.893963525085	1
19	40898	84.993974698332	1
19	40948	85.093972873951	1
19	40996	85.193971051942	1
19	41044	85.293969232305	1
19	41092	85.39396741504	1
19	41140	85.493965600147	1
19	41188	85.593963787626	1
19	41236	85.693974977477	1
19	41284	85.7939731697	1
19	41332	85.893971364295	1
19	41380	85.993969561262	1
19	41430	86.093967760601	1
19	41478	86.193965962312	1
19	41526	86.293964166395	1
19	41574	86.39397537285	1
19	41622	86.493973581677	1
19	41670	86.593971792877	1
19	41718	86.693970006449	1
19	41766	86.793968222393	1
19	41814	86.893966440709	1
19	41862	86.993964661397	1
19	41912	87.093975884457	1
19	41960	87.193974109889	1
19	42008	87.293972337693	1
19	42056	87.393970567869	1
19	42104	87.493968800417	1
19	42152	87.593967035337	1
19	42200	87.693965272629	1
19	42248	87.793963512293	1
19	42296	87.893974754329	1
19	42344	87.993972998737	1
19	42394	88.093971245517	1
19	42442	88.193969494669	1
19	42490	88.293967746193	1
19	42538	88.393966000089	1
19	42586	88.493964256357	1
19	42634	88.593975514997	1
19	42682	88.693973776009	1
19	42730	88.793972039393	1
19	42778	88.893970305149	1
19	42826	88.993968573277	1
19	42876	89.093966843777	1
19	42924	89.193965116649	1
19	42972	89.293963391893	1
19	43020	89.393974669509	1
19	43068	89.493972949498	1
19	43116	89.593971231859	1
19	43164	89.693969516592	1
19	43212	89.793967803697	1
19	43260	89.893966093174	1
19	43308	89.993964385023	1
19	43358	90.093975679244	1
19	43406	90.193973975837	1
19	43454	90.293972274802	1
19	43502	90.393970576139	1
19	43550	90.493968879848	1
19	43598	90.593967185929	1
19	43646	90.693965494382	1
19	43694	90.793963805207	1
19	43742	90.893975118404	1
19	43790	90.993973433973	1
19	43840	91.093971751914	1
19	43888	91.193970072227	1
19	43936	91.293968394912	1
19	43984	91.393966719969	1
19	44032	91.493965047399	1
19	44080	91.593963377201	1
19	44128	91.693974709375	1
19	44176	91.793973043921	1
19	44224	91.893971380839	1
19	44272	91.993969720129	1
19	44322	92.093968061791	1
19	44370	92.193966405825	1
19	44418	92.293964752231	1
19	44466	92.393963101009	1
19	44514	92.493974452159	1
19	44562	92.593972805681	1
19	44610	92.693971161575	1
19	44658	92.793969519841	1
19	44706	92.893967880479	1
19	44754	92.993966243489	1
19	44804	93.093964608871	1
19	44852	93.193975976625	1
19	44900	93.293974346751	1
19	44948	93.393972719249	1
19	44996	93.493971094119	1
19	45044	93.593969471361	1
19	45092	93.693967850975	1
19	45140	93.793966232961	1
19	45188	93.893964617319	1
19	45236	93.993976004049	1
19	45286	94.093974393151	1
19	45334	94.193972784625	1
19	45382	94.293971178472	1
19	45430	94.393969574691	1
19	45478	94.493967973282	1
19	45526	94.593966374245	1
19	45574	94.69396477758	1
19	45622	94.793963183287	1
19	45670	94.893974591366	1
19	45718	94.993973001817	1
19	45768	95.09397141464	1
19	45816	95.193969829835	1
19	45864	95.293968247402	1
19	45912	95.393966667341	1
19	45960	95.493965089652	1
19	46008	95.593963514335	1
19	46056	95.69397494139	1
19	46104	95.793973370817	1
19	46152	95.893971802616	1
19	46200	95.993970236787	1
19	46250	96.09396867333	1
19	46298	96.193967112245	1
19	46346	96.293965553533	1
19	46394	96.393963997193	1
19	46442	96.493975443225	1
19	46490	96.593973891629	1
19	46538	96.693972342405	1
19	46586	96.793970795553	1
19	46634	96.893969251073	1
19	46682	96.993967708965	1
19	46732	97.093966169229	1
19	46780	97.193964631865	1
19	46828	97.293976096873	1
19	46876	97.393974564253	1
19	46924	97.493973034005	1
19	46972	97.593971506129	1
19	47020	97.693969980625	1
19	47068	97.793968457493	1
19	47116	97.893966936733	1
19	47164	97.993965418345	1
19	47214	98.093963902329	1
19	47262	98.193975388685	1
19	47310	98.293973877413	1
19	47358	98.393972368513	1
19	47406	98.493970861985	1
19	47454	98.593969357829	1
19	47502	98.693967856045	1
19	47550	98.793966356633	1
19	47598	98.893964859593	1
19	47646	98.993963364925	1
19	47696	99.093974872629	1
19	47744	99.193973382706	1
19	47792	99.293971895155	1
19	47840	99.393970409976	1
19	47888	99.493968927169	1
19	47936	99.593967446734	1
19	47984	99.693965968671	1
19	48032	99.79396449298	1
19	48080	99.893976019661	1
19	48128	99.993974548714	1
20	544	2	0
20	1026	3	0
20	1508	4	0
20	1990	5	0
20	2472	6	0
20	2954	7	0
20	3436	8	0
20	3918	9	0
20	4401	10	0
20	4911	11	0
20	5403	12	0
20	5895	13	0
20	6387	14	0
20	6879	15	0
20	7371	16	0
20	7863	17	0
20	8355	18	0
20	8847	19	0
20	9339	20	0
20	9831	21	0
20	10323	22	0
20	10815	23	0
20	11307	24	0
20	11799	25	0
20	12291	26	0
20	12783	27	0
20	13275	28	0
20	13767	29	0
20	14259	30	0
20	14751	31	0
20	15243	32	0
20	15735	33	0
20	16227	34	0
20	16719	35	0
20	17211	36	0
20	17764	37	0
20	18246	38	0
20	18728	39	0
20	19210	40	0
20	19692	41	0
20	20174	42	0
20	20656	43	0
20	21138	44	0
20	21620	45	0
20	22102	46	0
20	22584	47	0
20	23066	48	0
20	23548	49	0
20	24030	50	0
20	24512	51	0
20	24994	52	0
20	25476	53	0
20	25958	54	0
20	26440	55	0
20	26922	56	0
20	27404	57	0
20	27886	58	0
20	28368	59	0
20	28850	60	0
20	29332	61	0
20	29814	62	0
20	30296	63	0
20	30778	64	0
20	31260	65	0
20	31742	66	0
20	32224	67	0
20	32706	68	0
20	33188	69	0
20	33670	70	0
20	34152	71	0
20	34634	72	0
20	35116	73	0
20	35598	74	0
20	36080	75	0
20	36562	76	0
20	37044	77	0
20	37526	78	0
20	38008	79	0
20	38490	80	0
20	38972	81	0
20	39454	82	0
20	39936	83	0
20	40418	84	0
20	40900	85	0
20	41382	86	0
20	41864	87	0
20	42346	88	0
20	42828	89	0
20	43310	90	0
20	43792	91	0
20	44274	92	0
20	44756	93	0
20	45238	94	0
20	45720	95	0
20	46202	96	0
20	46684	97	0
20	47166	98	0
20	47648	99	0
20	48130	100	0
21	544	2	0.005625
21	1026	3	0.00625
21	1508	4	0.00625
21	1990	5	0.00625
21	2472	6	0.00625
21	2954	7	0.00625
21	3436	8	0.00625
21	3918	9	0.00625
21	4401	10	0.00625
21	4911	11	0.006299
21	5403	12	0.00625
21	5895	13	0.00625
21	6387	14	0.00625
21	6879	15	0.00625
21	7371	16	0.00625
21	7863	17	0.00625
21	8355	18	0.00625
21	8847	19	0.00625
21	9339	20	0.00625
21	9831	21	0.00625
21	10323	22	0.00625
21	10815	23	0.00625
21	11307	24	0.00625
21	11799	25	0.00625
21	12291	26	0.00625
21	12783	27	0.00625
21	13275	28	0.00625
21	13767	29	0.00625
21	14259	30	0.00625
21	14751	31	0.00625
21	15243	32	0.00625
21	15735	33	0.00625
21	16227	34	0.00625
21	16719	35	0.00625
21	17211	36	0.00625
21	17764	37	0.006539059378
21	18246	38	0.00625
21	18728	39	0.00625
21	19210	40	0.00625
21	19692	41	0.00625
21	20174	42	0.00625
21	20656	43	0.00625
21	21138	44	0.00625
21	21620	45	0.00625
21	22102	46	0.00625
21	22584	47	0.00625
21	23066	48	0.00625
21	23548	49	0.00625
21	24030	50	0.00625
21	24512	51	0.00625
21	24994	52	0.00625
21	25476	53	0.00625
21	25958	54	0.00625
21	26440	55	0.00625
21	26922	56	0.00625
21	27404	57	0.00625
21	27886	58	0.00625
21	28368	59	0.00625
21	28850	60	0.00625
21	29332	61	0.00625
21	29814	62	0.00625
21	30296	63	0.00625
21	30778	64	0.00625
21	31260	65	0.00625
21	31742	66	0.00625
21	32224	67	0.00625
21	32706	68	0.00625
21	33188	69	0.00625
21	33670	70	0.00625
21	34152	71	0.00625
21	34634	72	0.00625
21	35116	73	0.00625
21	35598	74	0.00625
21	36080	75	0.00625
21	36562	76	0.00625
21	37044	77	0.00625
21	37526	78	0.00625
21	38008	79	0.00625
21	38490	80	0.00625
21	38972	81	0.00625
21	39454	82	0.00625
21	39936	83	0.00625
21	40418	84	0.00625
21	40900	85	0.00625
21	41382	86	0.00625
21	41864	87	0.00625
21	42346	88	0.00625
21	42828	89	0.00625
21	43310	90	0.00625
21	43792	91	0.00625
21	44274	92	0.00625
21	44756	93	0.00625
21	45238	94	0.00625
21	45720	95	0.00625
21	46202	96	0.00625
21	46684	97	0.00625
21	47166	98	0.00625
21	47648	99	0.00625
21	48130	100	0.00625
22	544	2	0
22	1026	3	0
22	1508	4	0
22	1990	5	0
22	2472	6	0
22	2954	7	0
22	3436	8	0
22	3918	9	0
22	4401	10	0
22	4911	11	0
22	5403	12	0
22	5895	13	0
22	6387	14	0
22	6879	15	0
22	7371	16	0
22	7863	17	0
22	8355	18	0
22	8847	19	0
22	9339	20	0
22	9831	21	0
22	10323	22	0
22	10815	23	0
22	11307	24	0
22	11799	25	0
22	12291	26	0
22	12783	27	0
22	13275	28	0
22	13767	29	0
22	14259	30	0
22	14751	31	0
22	15243	32	0
22	15735	33	0
22	16227	34	0
22	16719	35	0
22	17211	36	0
22	17764	37	0
22	18246	38	0
22	18728	39	0
22	19210	40	0
22	19692	41	0
22	20174	42	0
22	20656	43	0
22	21138	44	0
22	21620	45	0
22	22102	46	0
22	22584	47	0
22	23066	48	0
22	23548	49	0
22	24030	50	0
22	24512	51	0
22	24994	52	0
22	25476	53	0
22	25958	54	0
22	26440	55	0
22	26922	56	0
22	27404	57	0
22	27886	58	0
22	28368	59	0
22	28850	60	0
22	29332	61	0
22	29814	62	0
22	30296	63	0
22	30778	64	0
22	31260	65	0
22	31742	66	0
22	32224	67	0
22	32706	68	0
22	33188	69	0
22	33670	70	0
22	34152	71	0
22	34634	72	0
22	35116	73	0
22	35598	74	0
22	36080	75	0
22	36562	76	0
22	37044	77	0
22	37526	78	0
22	38008	79	0
22	38490	80	0
22	38972	81	0
22	39454	82	0
22	39936	83	0
22	40418	84	0
22	40900	85	0
22	41382	86	0
22	41864	87	0
22	42346	88	0
22	42828	89	0
22	43310	90	0
22	43792	91	0
22	44274	92	0
22	44756	93	0
22	45238	94	0
22	45720	95	0
22	46202	96	0
22	46684	97	0
22	47166	98	0
22	47648	99	0
22	48130	100	0
23	545	2	1
23	1027	3	1
23	1509	4	1
23	1991	5	1
23	2473	6	1
23	2955	7	1
23	3437	8	1
23	3919	9	1
23	4402	10	1
23	4912	11	1
23	5404	12	1
23	5896	13	1
23	6388	14	1
23	6880	15	1
23	7372	16	1
23	7864	17	1
23	8356	18	1
23	8848	19	1
23	9340	20	1
23	9832	21	1
23	10324	22	1
23	10816	23	1
23	11308	24	1
23	11800	25	1
23	12292	26	1
23	12784	27	1
23	13276	28	1
23	13768	29	1
23	14260	30	1
23	14752	31	1
23	15244	32	1
23	15736	33	1
23	16228	34	1
23	16720	35	1
23	17212	36	1
23	17765	37	1
23	18247	38	1
23	18729	39	1
23	19211	40	1
23	19693	41	1
23	20175	42	1
23	20657	43	1
23	21139	44	1
23	21621	45	1
23	22103	46	1
23	22585	47	1
23	23067	48	1
23	23549	49	1
23	24031	50	1
23	24513	51	1
23	24995	52	1
23	25477	53	1
23	25959	54	1
23	26441	55	1
23	26923	56	1
23	27405	57	1
23	27887	58	1
23	28369	59	1
23	28851	60	1
23	29333	61	1
23	29815	62	1
23	30297	63	1
23	30779	64	1
23	31261	65	1
23	31743	66	1
23	32225	67	1
23	32707	68	1
23	33189	69	1
23	33671	70	1
23	34153	71	1
23	34635	72	1
23	35117	73	1
23	35599	74	1
23	36081	75	1
23	36563	76	1
23	37045	77	1
23	37527	78	1
23	38009	79	1
23	38491	80	1
23	38973	81	1
23	39455	82	1
23	39937	83	1
23	40419	84	1
23	40901	85	1
23	41383	86	1
23	41865	87	1
23	42347	88	1
23	42829	89	1
23	43311	90	1
23	43793	91	1
23	44275	92	1
23	44757	93	1
23	45239	94	1
23	45721	95	1
23	46203	96	1
23	46685	97	1
23	47167	98	1
23	47649	99	1
23	48131	100	1
24	545	2	0.005625
24	1027	3	0.00625
24	1509	4	0.00625
24	1991	5	0.00625
24	2473	6	0.00625
24	2955	7	0.00625
24	3437	8	0.00625
24	3919	9	0.00625
24	4402	10	0.00625
24	4912	11	0.006298
24	5404	12	0.00625
24	5896	13	0.00625
24	6388	14	0.00625
24	6880	15	0.00625
24	7372	16	0.00625
24	7864	17	0.00625
24	8356	18	0.00625
24	8848	19	0.00625
24	9340	20	0.00625
24	9832	21	0.00625
24	10324	22	0.00625
24	10816	23	0.00625
24	11308	24	0.00625
24	11800	25	0.00625
24	12292	26	0.00625
24	12784	27	0.00625
24	13276	28	0.00625
24	13768	29	0.00625
24	14260	30	0.00625
24	14752	31	0.00625
24	15244	32	0.00625
24	15736	33	0.00625
24	16228	34	0.00625
24	16720	35	0.00625
24	17212	36	0.00625
24	17765	37	0.006539059378
24	18247	38	0.00625
24	18729	39	0.00625
24	19211	40	0.00625
24	19693	41	0.00625
24	20175	42	0.00625
24	20657	43	0.00625
24	21139	44	0.00625
24	21621	45	0.00625
24	22103	46	0.00625
24	22585	47	0.00625
24	23067	48	0.00625
24	23549	49	0.00625
24	24031	50	0.00625
24	24513	51	0.00625
24	24995	52	0.00625
24	25477	53	0.00625
24	25959	54	0.00625
24	26441	55	0.00625
24	26923	56	0.00625
24	27405	57	0.00625
24	27887	58	0.00625
24	28369	59	0.00625
24	28851	60	0.00625
24	29333	61	0.00625
24	29815	62	0.00625
24	30297	63	0.00625
24	30779	64	0.00625
24	31261	65	0.00625
24	31743	66	0.00625
24	32225	67	0.00625
24	32707	68	0.00625
24	33189	69	0.00625
24	33671	70	0.00625
24	34153	71	0.00625
24	34635	72	0.00625
24	35117	73	0.00625
24	35599	74	0.00625
24	36081	75	0.00625
24	36563	76	0.00625
24	37045	77	0.00625
24	37527	78	0.00625
24	38009	79	0.00625
24	38491	80	0.00625
24	38973	81	0.00625
24	39455	82	0.00625
24	39937	83	0.00625
24	40419	84	0.00625
24	40901	85	0.00625
24	41383	86	0.00625
24	41865	87	0.00625
24	42347	88	0.00625
24	42829	89	0.00625
24	43311	90	0.00625
24	43793	91	0.00625
24	44275	92	0.00625
24	44757	93	0.00625
24	45239	94	0.00625
24	45721	95	0.00625
24	46203	96	0.00625
24	46685	97	0.00625
24	47167	98	0.00625
24	47649	99	0.00625
24	48131	100	0.00625
25	545	2	0
25	1027	3	0
25	1509	4	0
25	1991	5	0
25	2473	6	0
25	2955	7	0
25	3437	8	0
25	3919	9	0
25	4402	10	0
25	4912	11	0
25	5404	12	0
25	5896	13	0
25	6388	14	0
25	6880	15	0
25	7372	16	0
25	7864	17	0
25	8356	18	0
25	8848	19	0
25	9340	20	0
25	9832	21	0
25	10324	22	0
25	10816	23	0
25	11308	24	0
25	11800	25	0
25	12292	26	0
25	12784	27	0
25	13276	28	0
25	13768	29	0
25	14260	30	0
25	14752	31	0
25	15244	32	0
25	15736	33	0
25	16228	34	0
25	16720	35	0
25	17212	36	0
25	17765	37	0
25	18247	38	0
25	18729	39	0
25	19211	40	0
25	19693	41	0
25	20175	42	0
25	20657	43	0
25	21139	44	0
25	21621	45	0
25	22103	46	0
25	22585	47	0
25	23067	48	0
25	23549	49	0
25	24031	50	0
25	24513	51	0
25	24995	52	0
25	25477	53	0
25	25959	54	0
25	26441	55	0
25	26923	56	0
25	27405	57	0
25	27887	58	0
25	28369	59	0
25	28851	60	0
25	29333	61	0
25	29815	62	0
25	30297	63	0
25	30779	64	0
25	31261	65	0
25	31743	66	0
25	32225	67	0
25	32707	68	0
25	33189	69	0
25	33671	70	0
25	34153	71	0
25	34635	72	0
25	35117	73	0
25	35599	74	0
25	36081	75	0
25	36563	76	0
25	37045	77	0
25	37527	78	0
25	38009	79	0
25	38491	80	0
25	38973	81	0
25	39455	82	0
25	39937	83	0
25	40419	84	0
25	40901	85	0
25	41383	86	0
25	41865	87	0
25	42347	88	0
25	42829	89	0
25	43311	90	0
25	43793	91	0
25	44275	92	0
25	44757	93	0
25	45239	94	0
25	45721	95	0
25	46203	96	0
25	46685	97	0
25	47167	98	0
25	47649	99	0
25	48131	100	0

