version 3
run BreakRanksNoGui-582-20240710-17:11:48-270091
attr configname BreakRanksNoGui
attr datetime 20240710-17:11:48
attr datetimef 20240710-171148
attr experiment BreakRanksNoGui
attr inifile omnetpp.ini
attr iterationvars "$nCars=3, $platoonSize=2, $nLanes=1, $ploegH=0.5, $controller=1, $headway=0.1, $leaderHeadway=1.2, $leaderSpeed=130, $breakRanksSafetyDistance=5, $minSpeed=120, $maxSpeed=140, $beaconInterval=0.1, $priority=4, $packetSize=200, $sController=\"CACC\", $0=2, $1=0"
attr iterationvarsd nCars=3/platoonSize=2/nLanes=1/ploegH=0.5/controller=1/headway=0.1/leaderHeadway=1.2/leaderSpeed=130/breakRanksSafetyDistance=5/minSpeed=120/maxSpeed=140/beaconInterval=0.1/priority=4/packetSize=200/sController=CACC/2/0
attr iterationvarsf nCars=3,platoonSize=2,nLanes=1,ploegH=0.5,controller=1,headway=0.1,leaderHeadway=1.2,leaderSpeed=130,breakRanksSafetyDistance=5,minSpeed=120,maxSpeed=140,beaconInterval=0.1,priority=4,packetSize=200,sController=CACC,2,0-
attr measurement "$nCars=3, $platoonSize=2, $nLanes=1, $ploegH=0.5, $controller=1, $headway=0.1, $leaderHeadway=1.2, $leaderSpeed=130, $breakRanksSafetyDistance=5, $minSpeed=120, $maxSpeed=140, $beaconInterval=0.1, $priority=4, $packetSize=200, $sController=\"CACC\", $0=2, $1=0"
attr network Highway
attr processid 270091
attr repetition 2
attr replication #2
attr resultdir results
attr runnumber 582
attr seedset 2
itervar beaconInterval 0.1
itervar breakRanksSafetyDistance 5
itervar controller 1
itervar headway 0.1
itervar leaderHeadway 1.2
itervar leaderSpeed 130
itervar maxSpeed 140
itervar minSpeed 120
itervar nCars 3
itervar nLanes 1
itervar packetSize 200
itervar platoonSize 2
itervar ploegH 0.5
itervar priority 4
itervar sController "\"CACC\""
config image-path ../../../veins/images
config repeat 10
config extends BreakRanks
config *.manager.command "\"sumo\""
config *.manager.ignoreGuiCommands true
config output-vector-file "results/BreakRanks_1_0.1_130_5_2 /result_2.vec"
config output-scalar-file "results/BreakRanks_1_0.1_130_5_2 /result_2.sca"
config extends Platooning
config *.node[*].scenario_type "\"BreakRanksScenario\""
config *.manager.command "\"sumo-gui\""
config *.node[*].scenario_type "\"SimpleScenario\""
config cmdenv-express-mode true
config cmdenv-autoflush true
config cmdenv-status-frequency 15s
config num-rngs 6
config network Highway
config debug-on-errors true
config print-undisposed true
config *.playgroundSizeX 65000m
config *.playgroundSizeY 25000m
config *.playgroundSizeZ 50m
config sim-time-limit "100 s"
config *.annotations.draw false
config *.obstacles.debug false
config *.world.useTorus false
config *.world.use2D false
config *.manager.updateInterval 0.01s
config *.manager.host "\"localhost\""
config *.manager.moduleType "\"org.car2x.plexe.PlatoonCar\""
config *.manager.moduleName "\"node\""
config *.manager.moduleDisplayString "\"\""
config *.manager.autoShutdown true
config *.manager.margin 25
config *.connectionManager.sendDirect true
config *.connectionManager.maxInterfDist 2600m
config *.connectionManager.drawMaxIntfDist false
config *.**.nic.mac1609_4.useServiceChannel false
config *.**.nic.mac1609_4.txPower 100mW
config *.**.nic.mac1609_4.bitrate 6Mbps
config *.**.nic.mac1609_4.useAcks true
config *.**.nic.mac1609_4.ackErrorRate 0.0
config *.**.nic.mac1609_4.frameErrorRate 0.0
config *.**.nic.phy80211p.minPowerLevel -94dBm
config *.**.nic.phy80211p.maxTXPower 100mW
config *.**.nic.phy80211p.useNoiseFloor true
config *.**.nic.phy80211p.noiseFloor -95dBm
config *.**.nic.phy80211p.decider "xmldoc(\"config.xml\")"
config *.**.nic.phy80211p.analogueModels "xmldoc(\"config.xml\")"
config *.**.nic.phy80211p.usePropagationDelay true
config *.node[*].mobility.x 0
config *.node[*].mobility.y 0
config *.node[*].mobility.z 1.895
config seed-set 2
config **.seed 2
config *.node[*].prot.rng-0 2
config *.node[*].appl.rng-0 3
config *.node[*].scenario.rng-0 4
config **.traffic.rng-0 5
config *.manager.configFile "\"./sumocfg/freeway.sumo.cfg\""
config *.manager.launchConfig "xmldoc(\"./sumocfg/freeway.launchd.xml\")"
config **.numberOfCars 3
config **.numberOfCarsPerPlatoon 2
config **.numberOfLanes 1
config *.node[*].helper_type "\"PositionHelper\""
config *.node[*].scenario.caccC1 0.5
config *.node[*].scenario.caccXi 1
config *.node[*].scenario.caccOmegaN "0.2 Hz"
config *.node[*].scenario.caccSpacing "2 m"
config *.node[*].scenario.engineTau "0.5 s"
config *.node[*].scenario.ploegH 0.5s
config *.node[*].scenario.ploegKp 0.2
config *.node[*].scenario.ploegKd 0.7
config *.node[*].scenario.useRealisticEngine false
config *.node[*].scenario.useControllerAcceleration true
config *.node[*].scenario.nLanes 1
config **.numericController 1
config **.headway 0.1s
config *.node[*].scenario.accHeadway 0.1s
config *.node[*].scenario.leaderHeadway 1.2s
config *.node[*].scenario.leaderSpeed 130kmph
config *.node[*].appl_type "\"SimplePlatooningApp\""
config *.node[*].appl.*.scalar-recording true
config *.node[*].appl.*.vector-recording true
config *.node[0].appl.breakRanksSafetyDistance 5m
config *.node[*].appl.minSpeed 120kmph
config *.node[*].appl.maxSpeed 140kmph
config *.node[*].protocol_type "\"SimplePlatooningBeaconing\""
config *.node[*].prot.*.scalar-recording true
config *.node[*].prot.*.vector-recording true
config *.node[*].prot.beaconingInterval 0.1s
config *.node[*].prot.priority 4
config *.node[*].prot.packetSize 200
config **.traffic_type "\"PlatoonsTrafficManager\""
config **.traffic.platoonInsertTime "1 s"
config **.traffic.platoonInsertSpeed 130kmph
config **.traffic.nCars 3
config **.traffic.platoonSize 2
config **.traffic.nLanes 1
config **.traffic.platooningVType "\"vtypeauto\""
config **.traffic.controller "\"CACC\""
config **.traffic.platoonInsertDistance 2m
config **.traffic.platoonInsertHeadway 0s
config **.traffic.platoonLeaderHeadway 1.2s
config **.scalar-recording false
config **.vector-recording false

vector 0 Highway.node[0].appl distance ETV
vector 1 Highway.node[0].appl relativeSpeed ETV
vector 2 Highway.node[0].appl nodeId ETV
vector 3 Highway.node[0].appl acceleration ETV
vector 4 Highway.node[0].appl controllerAcceleration ETV
vector 5 Highway.node[0].appl speed ETV
vector 6 Highway.node[0].appl posx ETV
vector 7 Highway.node[0].appl posy ETV
vector 8 Highway.node[1].appl distance ETV
vector 9 Highway.node[1].appl relativeSpeed ETV
vector 10 Highway.node[1].appl nodeId ETV
vector 11 Highway.node[1].appl acceleration ETV
vector 12 Highway.node[1].appl controllerAcceleration ETV
vector 13 Highway.node[1].appl speed ETV
vector 14 Highway.node[1].appl posx ETV
vector 15 Highway.node[1].appl posy ETV
vector 16 Highway.node[2].appl distance ETV
vector 17 Highway.node[2].appl relativeSpeed ETV
vector 18 Highway.node[2].appl nodeId ETV
vector 19 Highway.node[2].appl acceleration ETV
vector 20 Highway.node[2].appl controllerAcceleration ETV
vector 21 Highway.node[2].appl speed ETV
vector 22 Highway.node[2].appl posx ETV
vector 23 Highway.node[2].appl posy ETV
vector 24 Highway.node[1].prot leaderDelay ETV
vector 25 Highway.node[1].prot leaderDelayId ETV
vector 26 Highway.node[1].prot frontDelay ETV
vector 27 Highway.node[1].prot frontDelayId ETV
vector 28 Highway.node[0].prot nodeId ETV
vector 29 Highway.node[0].prot busyTime ETV
vector 30 Highway.node[0].prot collisions ETV
vector 31 Highway.node[1].prot nodeId ETV
vector 32 Highway.node[1].prot busyTime ETV
vector 33 Highway.node[1].prot collisions ETV
vector 34 Highway.node[2].prot nodeId ETV
vector 35 Highway.node[2].prot busyTime ETV
vector 36 Highway.node[2].prot collisions ETV
0	113	1.11	9341.17
0	172	1.21	9341.17
0	231	1.31	9341.17
0	290	1.41	9341.17
0	349	1.51	9341.17
0	408	1.61	9341.17
0	467	1.71	9341.17
0	526	1.81	9341.17
0	585	1.91	9341.17
0	647	2.01	9341.17
0	706	2.11	-1
0	765	2.21	-1
0	824	2.31	-1
0	883	2.41	-1
0	942	2.51	-1
0	1001	2.61	-1
0	1060	2.71	-1
0	1119	2.81	-1
0	1178	2.91	-1
0	1240	3.01	-1
0	1299	3.11	-1
0	1358	3.21	-1
0	1417	3.31	-1
0	1476	3.41	-1
0	1535	3.51	-1
0	1594	3.61	-1
0	1653	3.71	-1
0	1712	3.81	-1
0	1771	3.91	-1
0	1833	4.01	-1
0	1892	4.11	-1
0	1951	4.21	-1
0	2010	4.31	-1
0	2069	4.41	-1
0	2128	4.51	-1
0	2187	4.61	-1
0	2246	4.71	-1
0	2305	4.81	-1
0	2364	4.91	-1
0	2426	5.01	-1
0	2485	5.11	-1
0	2544	5.21	-1
0	2603	5.31	-1
0	2662	5.41	-1
0	2721	5.51	-1
0	2780	5.61	-1
0	2839	5.71	-1
0	2898	5.81	-1
0	2957	5.91	-1
0	3019	6.01	-1
0	3078	6.11	-1
0	3137	6.21	-1
0	3196	6.31	-1
0	3255	6.41	-1
0	3314	6.51	-1
0	3373	6.61	-1
0	3432	6.71	-1
0	3491	6.81	-1
0	3550	6.91	-1
0	3612	7.01	-1
0	3671	7.11	-1
0	3730	7.21	-1
0	3789	7.31	-1
0	3848	7.41	-1
0	3907	7.51	-1
0	3966	7.61	-1
0	4025	7.71	-1
0	4084	7.81	-1
0	4143	7.91	-1
0	4205	8.01	-1
0	4264	8.11	-1
0	4323	8.21	-1
0	4382	8.31	-1
0	4441	8.41	-1
0	4500	8.51	-1
0	4559	8.61	-1
0	4618	8.71	-1
0	4677	8.81	-1
0	4736	8.91	-1
0	4798	9.01	-1
0	4857	9.11	-1
0	4916	9.21	-1
0	4975	9.31	-1
0	5034	9.41	-1
0	5093	9.51	-1
0	5152	9.61	-1
0	5211	9.71	-1
0	5270	9.81	-1
0	5329	9.91	-1
0	5422	10.01	-1
0	5482	10.11	-1
0	5542	10.21	-1
0	5602	10.31	-1
0	5662	10.41	-1
0	5722	10.51	-1
0	5782	10.61	-1
0	5842	10.71	-1
0	5902	10.81	-1
0	5962	10.91	-1
0	6025	11.01	-1
0	6085	11.11	-1
0	6145	11.21	-1
0	6205	11.31	-1
0	6265	11.41	-1
0	6325	11.51	-1
0	6385	11.61	-1
0	6445	11.71	-1
0	6505	11.81	-1
0	6565	11.91	-1
0	6628	12.01	-1
0	6688	12.11	-1
0	6748	12.21	-1
0	6808	12.31	-1
0	6868	12.41	-1
0	6928	12.51	-1
0	6988	12.61	-1
0	7048	12.71	-1
0	7108	12.81	-1
0	7168	12.91	-1
0	7231	13.01	-1
0	7291	13.11	-1
0	7351	13.21	-1
0	7411	13.31	-1
0	7471	13.41	-1
0	7531	13.51	-1
0	7591	13.61	-1
0	7651	13.71	-1
0	7711	13.81	-1
0	7771	13.91	-1
0	7834	14.01	-1
0	7894	14.11	-1
0	7954	14.21	-1
0	8014	14.31	-1
0	8074	14.41	-1
0	8134	14.51	-1
0	8194	14.61	-1
0	8254	14.71	-1
0	8314	14.81	-1
0	8374	14.91	-1
0	8437	15.01	-1
0	8497	15.11	-1
0	8557	15.21	-1
0	8617	15.31	-1
0	8677	15.41	-1
0	8737	15.51	-1
0	8797	15.61	-1
0	8857	15.71	-1
0	8917	15.81	-1
0	8977	15.91	-1
0	9040	16.01	-1
0	9100	16.11	-1
0	9160	16.21	-1
0	9220	16.31	-1
0	9280	16.41	-1
0	9340	16.51	-1
0	9400	16.61	-1
0	9460	16.71	-1
0	9520	16.81	-1
0	9580	16.91	-1
0	9643	17.01	-1
0	9703	17.11	-1
0	9763	17.21	-1
0	9823	17.31	-1
0	9883	17.41	-1
0	9943	17.51	-1
0	10003	17.61	-1
0	10063	17.71	-1
0	10123	17.81	-1
0	10183	17.91	-1
0	10246	18.01	-1
0	10306	18.11	-1
0	10366	18.21	-1
0	10426	18.31	-1
0	10486	18.41	-1
0	10546	18.51	-1
0	10606	18.61	-1
0	10666	18.71	-1
0	10726	18.81	-1
0	10786	18.91	-1
0	10849	19.01	-1
0	10909	19.11	-1
0	10969	19.21	-1
0	11029	19.31	-1
0	11089	19.41	-1
0	11149	19.51	-1
0	11209	19.61	-1
0	11269	19.71	-1
0	11329	19.81	-1
0	11389	19.91	-1
0	11452	20.01	-1
0	11512	20.11	-1
0	11572	20.21	-1
0	11632	20.31	-1
0	11692	20.41	-1
0	11752	20.51	-1
0	11812	20.61	-1
0	11872	20.71	-1
0	11932	20.81	-1
0	11992	20.91	-1
0	12055	21.01	-1
0	12115	21.11	-1
0	12175	21.21	-1
0	12235	21.31	-1
0	12295	21.41	-1
0	12355	21.51	-1
0	12415	21.61	-1
0	12475	21.71	-1
0	12535	21.81	-1
0	12595	21.91	-1
0	12658	22.01	-1
0	12718	22.11	-1
0	12778	22.21	-1
0	12838	22.31	-1
0	12898	22.41	-1
0	12958	22.51	-1
0	13018	22.61	-1
0	13078	22.71	-1
0	13138	22.81	-1
0	13198	22.91	-1
0	13261	23.01	-1
0	13321	23.11	-1
0	13381	23.21	-1
0	13441	23.31	-1
0	13501	23.41	-1
0	13561	23.51	-1
0	13621	23.61	-1
0	13681	23.71	-1
0	13741	23.81	-1
0	13801	23.91	-1
0	13864	24.01	-1
0	13924	24.11	-1
0	13984	24.21	-1
0	14044	24.31	-1
0	14104	24.41	-1
0	14164	24.51	-1
0	14224	24.61	-1
0	14284	24.71	-1
0	14344	24.81	-1
0	14404	24.91	-1
0	14467	25.01	-1
0	14527	25.11	-1
0	14587	25.21	-1
0	14647	25.31	-1
0	14707	25.41	-1
0	14767	25.51	-1
0	14827	25.61	-1
0	14887	25.71	-1
0	14947	25.81	-1
0	15007	25.91	-1
0	15070	26.01	-1
0	15130	26.11	-1
0	15190	26.21	-1
0	15250	26.31	-1
0	15310	26.41	-1
0	15370	26.51	-1
0	15430	26.61	-1
0	15490	26.71	-1
0	15550	26.81	-1
0	15610	26.91	-1
0	15673	27.01	-1
0	15733	27.11	-1
0	15793	27.21	-1
0	15853	27.31	-1
0	15913	27.41	-1
0	15973	27.51	-1
0	16033	27.61	-1
0	16093	27.71	-1
0	16153	27.81	-1
0	16213	27.91	-1
0	16276	28.01	-1
0	16336	28.11	-1
0	16396	28.21	-1
0	16456	28.31	-1
0	16516	28.41	-1
0	16576	28.51	-1
0	16636	28.61	-1
0	16696	28.71	-1
0	16756	28.81	-1
0	16816	28.91	-1
0	16879	29.01	-1
0	16939	29.11	-1
0	16999	29.21	-1
0	17059	29.31	-1
0	17119	29.41	-1
0	17179	29.51	-1
0	17239	29.61	-1
0	17299	29.71	-1
0	17359	29.81	-1
0	17419	29.91	-1
0	17482	30.01	-1
0	17542	30.11	-1
0	17602	30.21	-1
0	17662	30.31	-1
0	17722	30.41	-1
0	17782	30.51	-1
0	17842	30.61	-1
0	17902	30.71	-1
0	17962	30.81	-1
0	18022	30.91	-1
0	18085	31.01	-1
0	18145	31.11	-1
0	18205	31.21	-1
0	18265	31.31	-1
0	18325	31.41	-1
0	18385	31.51	-1
0	18445	31.61	-1
0	18505	31.71	-1
0	18565	31.81	-1
0	18625	31.91	-1
0	18688	32.01	-1
0	18748	32.11	-1
0	18808	32.21	-1
0	18868	32.31	-1
0	18928	32.41	-1
0	18988	32.51	-1
0	19048	32.61	-1
0	19108	32.71	-1
0	19168	32.81	-1
0	19228	32.91	-1
0	19291	33.01	-1
0	19351	33.11	-1
0	19411	33.21	-1
0	19471	33.31	-1
0	19531	33.41	-1
0	19591	33.51	-1
0	19651	33.61	-1
0	19711	33.71	-1
0	19771	33.81	-1
0	19831	33.91	-1
0	19894	34.01	-1
0	19954	34.11	-1
0	20014	34.21	-1
0	20074	34.31	-1
0	20134	34.41	-1
0	20194	34.51	-1
0	20254	34.61	-1
0	20314	34.71	-1
0	20374	34.81	-1
0	20434	34.91	-1
0	20497	35.01	-1
0	20557	35.11	-1
0	20617	35.21	-1
0	20677	35.31	-1
0	20737	35.41	-1
0	20797	35.51	-1
0	20857	35.61	-1
0	20917	35.71	-1
0	20977	35.81	-1
0	21037	35.91	-1
0	21100	36.01	-1
0	21160	36.11	-1
0	21220	36.21	-1
0	21280	36.31	-1
0	21406	36.41	-1
0	21465	36.51	-1
0	21524	36.61	-1
0	21583	36.71	-1
0	21642	36.81	-1
0	21701	36.91	-1
0	21763	37.01	-1
0	21822	37.11	-1
0	21881	37.21	-1
0	21940	37.31	-1
0	21999	37.41	-1
0	22058	37.51	-1
0	22117	37.61	-1
0	22176	37.71	-1
0	22235	37.81	-1
0	22294	37.91	-1
0	22356	38.01	-1
0	22415	38.11	-1
0	22474	38.21	-1
0	22533	38.31	-1
0	22592	38.41	-1
0	22651	38.51	-1
0	22710	38.61	-1
0	22769	38.71	-1
0	22828	38.81	-1
0	22887	38.91	-1
0	22949	39.01	-1
0	23008	39.11	-1
0	23067	39.21	-1
0	23126	39.31	-1
0	23185	39.41	-1
0	23244	39.51	-1
0	23303	39.61	-1
0	23362	39.71	-1
0	23421	39.81	-1
0	23480	39.91	-1
0	23542	40.01	-1
0	23601	40.11	-1
0	23660	40.21	-1
0	23719	40.31	-1
0	23778	40.41	-1
0	23837	40.51	-1
0	23896	40.61	-1
0	23955	40.71	-1
0	24014	40.81	-1
0	24073	40.91	-1
0	24135	41.01	-1
0	24194	41.11	-1
0	24253	41.21	-1
0	24312	41.31	-1
0	24371	41.41	-1
0	24430	41.51	-1
0	24489	41.61	-1
0	24548	41.71	-1
0	24607	41.81	-1
0	24666	41.91	-1
0	24728	42.01	-1
0	24787	42.11	-1
0	24846	42.21	-1
0	24905	42.31	-1
0	24964	42.41	-1
0	25023	42.51	-1
0	25082	42.61	-1
0	25141	42.71	-1
0	25200	42.81	-1
0	25259	42.91	-1
0	25321	43.01	-1
0	25380	43.11	-1
0	25439	43.21	-1
0	25498	43.31	-1
0	25557	43.41	-1
0	25616	43.51	-1
0	25675	43.61	-1
0	25734	43.71	-1
0	25793	43.81	-1
0	25852	43.91	-1
0	25914	44.01	-1
0	25973	44.11	-1
0	26032	44.21	-1
0	26091	44.31	-1
0	26150	44.41	-1
0	26209	44.51	-1
0	26268	44.61	-1
0	26327	44.71	-1
0	26386	44.81	-1
0	26445	44.91	-1
0	26507	45.01	-1
0	26566	45.11	-1
0	26625	45.21	-1
0	26684	45.31	-1
0	26743	45.41	-1
0	26802	45.51	-1
0	26861	45.61	-1
0	26920	45.71	-1
0	26979	45.81	-1
0	27038	45.91	-1
0	27100	46.01	-1
0	27159	46.11	-1
0	27218	46.21	-1
0	27277	46.31	-1
0	27336	46.41	-1
0	27395	46.51	-1
0	27454	46.61	-1
0	27513	46.71	-1
0	27572	46.81	-1
0	27631	46.91	-1
0	27693	47.01	-1
0	27752	47.11	-1
0	27811	47.21	-1
0	27870	47.31	-1
0	27929	47.41	-1
0	27988	47.51	-1
0	28047	47.61	-1
0	28106	47.71	-1
0	28165	47.81	-1
0	28224	47.91	-1
0	28286	48.01	-1
0	28345	48.11	-1
0	28404	48.21	-1
0	28463	48.31	-1
0	28522	48.41	-1
0	28581	48.51	-1
0	28640	48.61	-1
0	28699	48.71	-1
0	28758	48.81	-1
0	28817	48.91	-1
0	28879	49.01	-1
0	28938	49.11	-1
0	28997	49.21	-1
0	29056	49.31	-1
0	29115	49.41	-1
0	29174	49.51	-1
0	29233	49.61	-1
0	29292	49.71	-1
0	29351	49.81	-1
0	29410	49.91	-1
0	29472	50.01	-1
0	29531	50.11	-1
0	29590	50.21	-1
0	29649	50.31	-1
0	29708	50.41	-1
0	29767	50.51	-1
0	29826	50.61	-1
0	29885	50.71	-1
0	29944	50.81	-1
0	30003	50.91	-1
0	30065	51.01	-1
0	30124	51.11	-1
0	30183	51.21	-1
0	30242	51.31	-1
0	30301	51.41	-1
0	30360	51.51	-1
0	30419	51.61	-1
0	30478	51.71	-1
0	30537	51.81	-1
0	30596	51.91	-1
0	30658	52.01	-1
0	30717	52.11	-1
0	30776	52.21	-1
0	30835	52.31	-1
0	30894	52.41	-1
0	30953	52.51	-1
0	31012	52.61	-1
0	31071	52.71	-1
0	31130	52.81	-1
0	31189	52.91	-1
0	31251	53.01	-1
0	31310	53.11	-1
0	31369	53.21	-1
0	31428	53.31	-1
0	31487	53.41	-1
0	31546	53.51	-1
0	31605	53.61	-1
0	31664	53.71	-1
0	31723	53.81	-1
0	31782	53.91	-1
0	31844	54.01	-1
0	31903	54.11	-1
0	31962	54.21	-1
0	32021	54.31	-1
0	32080	54.41	-1
0	32139	54.51	-1
0	32198	54.61	-1
0	32257	54.71	-1
0	32316	54.81	-1
0	32375	54.91	-1
0	32437	55.01	-1
0	32496	55.11	-1
0	32555	55.21	-1
0	32614	55.31	-1
0	32673	55.41	-1
0	32732	55.51	-1
0	32791	55.61	-1
0	32850	55.71	-1
0	32909	55.81	-1
0	32968	55.91	-1
0	33030	56.01	-1
0	33089	56.11	-1
0	33148	56.21	-1
0	33207	56.31	-1
0	33266	56.41	-1
0	33325	56.51	-1
0	33384	56.61	-1
0	33443	56.71	-1
0	33502	56.81	-1
0	33561	56.91	-1
0	33623	57.01	-1
0	33682	57.11	-1
0	33741	57.21	-1
0	33800	57.31	-1
0	33859	57.41	-1
0	33918	57.51	-1
0	33977	57.61	-1
0	34036	57.71	-1
0	34095	57.81	-1
0	34154	57.91	-1
0	34216	58.01	-1
0	34275	58.11	-1
0	34334	58.21	-1
0	34393	58.31	-1
0	34452	58.41	-1
0	34511	58.51	-1
0	34570	58.61	-1
0	34629	58.71	-1
0	34688	58.81	-1
0	34747	58.91	-1
0	34809	59.01	-1
0	34868	59.11	-1
0	34927	59.21	-1
0	34986	59.31	-1
0	35045	59.41	-1
0	35104	59.51	-1
0	35163	59.61	-1
0	35222	59.71	-1
0	35281	59.81	-1
0	35340	59.91	-1
0	35402	60.01	-1
0	35461	60.11	-1
0	35520	60.21	-1
0	35579	60.31	-1
0	35638	60.41	-1
0	35697	60.51	-1
0	35756	60.61	-1
0	35815	60.71	-1
0	35874	60.81	-1
0	35933	60.91	-1
0	35995	61.01	-1
0	36054	61.11	-1
0	36113	61.21	-1
0	36172	61.31	-1
0	36231	61.41	-1
0	36290	61.51	-1
0	36349	61.61	-1
0	36408	61.71	-1
0	36467	61.81	-1
0	36526	61.91	-1
0	36588	62.01	-1
0	36647	62.11	-1
0	36706	62.21	-1
0	36765	62.31	-1
0	36824	62.41	-1
0	36883	62.51	-1
0	36942	62.61	-1
0	37001	62.71	-1
0	37060	62.81	-1
0	37119	62.91	-1
0	37181	63.01	-1
0	37240	63.11	-1
0	37299	63.21	-1
0	37358	63.31	-1
0	37417	63.41	-1
0	37476	63.51	-1
0	37535	63.61	-1
0	37594	63.71	-1
0	37653	63.81	-1
0	37712	63.91	-1
0	37774	64.01	-1
0	37833	64.11	-1
0	37892	64.21	-1
0	37951	64.31	-1
0	38010	64.41	-1
0	38069	64.51	-1
0	38128	64.61	-1
0	38187	64.71	-1
0	38246	64.81	-1
0	38305	64.91	-1
0	38367	65.01	-1
0	38426	65.11	-1
0	38485	65.21	-1
0	38544	65.31	-1
0	38603	65.41	-1
0	38662	65.51	-1
0	38721	65.61	-1
0	38780	65.71	-1
0	38839	65.81	-1
0	38898	65.91	-1
0	38960	66.01	-1
0	39019	66.11	-1
0	39078	66.21	-1
0	39137	66.31	-1
0	39196	66.41	-1
0	39255	66.51	-1
0	39314	66.61	-1
0	39373	66.71	-1
0	39432	66.81	-1
0	39491	66.91	-1
0	39553	67.01	-1
0	39612	67.11	-1
0	39671	67.21	-1
0	39730	67.31	-1
0	39789	67.41	-1
0	39848	67.51	-1
0	39907	67.61	-1
0	39966	67.71	-1
0	40025	67.81	-1
0	40084	67.91	-1
0	40146	68.01	-1
0	40205	68.11	-1
0	40264	68.21	-1
0	40323	68.31	-1
0	40382	68.41	-1
0	40441	68.51	-1
0	40500	68.61	-1
0	40559	68.71	-1
0	40618	68.81	-1
0	40677	68.91	-1
0	40739	69.01	-1
0	40798	69.11	-1
0	40857	69.21	-1
0	40916	69.31	-1
0	40975	69.41	-1
0	41034	69.51	-1
0	41093	69.61	-1
0	41152	69.71	-1
0	41211	69.81	-1
0	41270	69.91	-1
0	41332	70.01	-1
0	41391	70.11	-1
0	41450	70.21	-1
0	41509	70.31	-1
0	41568	70.41	-1
0	41627	70.51	-1
0	41686	70.61	-1
0	41745	70.71	-1
0	41804	70.81	-1
0	41863	70.91	-1
0	41925	71.01	-1
0	41984	71.11	-1
0	42043	71.21	-1
0	42102	71.31	-1
0	42161	71.41	-1
0	42220	71.51	-1
0	42279	71.61	-1
0	42338	71.71	-1
0	42397	71.81	-1
0	42456	71.91	-1
0	42518	72.01	-1
0	42577	72.11	-1
0	42636	72.21	-1
0	42695	72.31	-1
0	42754	72.41	-1
0	42813	72.51	-1
0	42872	72.61	-1
0	42931	72.71	-1
0	42990	72.81	-1
0	43049	72.91	-1
0	43111	73.01	-1
0	43170	73.11	-1
0	43229	73.21	-1
0	43288	73.31	-1
0	43347	73.41	-1
0	43406	73.51	-1
0	43465	73.61	-1
0	43524	73.71	-1
0	43583	73.81	-1
0	43642	73.91	-1
0	43704	74.01	-1
0	43763	74.11	-1
0	43822	74.21	-1
0	43881	74.31	-1
0	43940	74.41	-1
0	43999	74.51	-1
0	44058	74.61	-1
0	44117	74.71	-1
0	44176	74.81	-1
0	44235	74.91	-1
0	44297	75.01	-1
0	44356	75.11	-1
0	44415	75.21	-1
0	44474	75.31	-1
0	44533	75.41	-1
0	44592	75.51	-1
0	44651	75.61	-1
0	44710	75.71	-1
0	44769	75.81	-1
0	44828	75.91	-1
0	44890	76.01	-1
0	44949	76.11	-1
0	45008	76.21	-1
0	45067	76.31	-1
0	45126	76.41	-1
0	45185	76.51	-1
0	45244	76.61	-1
0	45303	76.71	-1
0	45362	76.81	-1
0	45421	76.91	-1
0	45483	77.01	-1
0	45542	77.11	-1
0	45601	77.21	-1
0	45660	77.31	-1
0	45719	77.41	-1
0	45778	77.51	-1
0	45837	77.61	-1
0	45896	77.71	-1
0	45955	77.81	-1
0	46014	77.91	-1
0	46076	78.01	-1
0	46135	78.11	-1
0	46194	78.21	-1
0	46253	78.31	-1
0	46312	78.41	-1
0	46371	78.51	-1
0	46430	78.61	-1
0	46489	78.71	-1
0	46548	78.81	-1
0	46607	78.91	-1
0	46669	79.01	-1
0	46728	79.11	-1
0	46787	79.21	-1
0	46846	79.31	-1
0	46905	79.41	-1
0	46964	79.51	-1
0	47023	79.61	-1
0	47082	79.71	-1
0	47141	79.81	-1
0	47200	79.91	-1
0	47262	80.01	-1
0	47321	80.11	-1
0	47380	80.21	-1
0	47439	80.31	-1
0	47498	80.41	-1
0	47557	80.51	-1
0	47616	80.61	-1
0	47675	80.71	-1
0	47734	80.81	-1
0	47793	80.91	-1
0	47855	81.01	-1
0	47914	81.11	-1
0	47973	81.21	-1
0	48032	81.31	-1
0	48091	81.41	-1
0	48150	81.51	-1
0	48209	81.61	-1
0	48268	81.71	-1
0	48327	81.81	-1
0	48386	81.91	-1
0	48448	82.01	-1
0	48507	82.11	-1
0	48566	82.21	-1
0	48625	82.31	-1
0	48684	82.41	-1
0	48743	82.51	-1
0	48802	82.61	-1
0	48861	82.71	-1
0	48920	82.81	-1
0	48979	82.91	-1
0	49041	83.01	-1
0	49100	83.11	-1
0	49159	83.21	-1
0	49218	83.31	-1
0	49277	83.41	-1
0	49336	83.51	-1
0	49395	83.61	-1
0	49454	83.71	-1
0	49513	83.81	-1
0	49572	83.91	-1
0	49634	84.01	-1
0	49693	84.11	-1
0	49752	84.21	-1
0	49811	84.31	-1
0	49870	84.41	-1
0	49929	84.51	-1
0	49988	84.61	-1
0	50047	84.71	-1
0	50106	84.81	-1
0	50165	84.91	-1
0	50227	85.01	-1
0	50286	85.11	-1
0	50345	85.21	-1
0	50404	85.31	-1
0	50463	85.41	-1
0	50522	85.51	-1
0	50581	85.61	-1
0	50640	85.71	-1
0	50699	85.81	-1
0	50758	85.91	-1
0	50820	86.01	-1
0	50879	86.11	-1
0	50938	86.21	-1
0	50997	86.31	-1
0	51056	86.41	-1
0	51115	86.51	-1
0	51174	86.61	-1
0	51233	86.71	-1
0	51292	86.81	-1
0	51351	86.91	-1
0	51413	87.01	-1
0	51472	87.11	-1
0	51531	87.21	-1
0	51590	87.31	-1
0	51649	87.41	-1
0	51708	87.51	-1
0	51767	87.61	-1
0	51826	87.71	-1
0	51885	87.81	-1
0	51944	87.91	-1
0	52006	88.01	-1
0	52065	88.11	-1
0	52124	88.21	-1
0	52183	88.31	-1
0	52242	88.41	-1
0	52301	88.51	-1
0	52360	88.61	32.5588
0	52419	88.71	32.6481
0	52478	88.81	32.7383
0	52537	88.91	32.8298
0	52599	89.01	32.9228
0	52658	89.11	33.0175
0	52717	89.21	33.114
0	52776	89.31	33.2124
0	52835	89.41	33.3128
0	52894	89.51	33.4149
0	52953	89.61	33.5188
0	53012	89.71	33.6243
0	53071	89.81	33.7312
0	53130	89.91	33.8395
0	53192	90.01	33.9489
0	53251	90.11	34.0594
0	53310	90.21	34.1706
0	53369	90.31	34.2825
0	53428	90.41	34.3949
0	53487	90.51	34.5075
0	53546	90.61	34.6203
0	53605	90.71	34.7332
0	53664	90.81	34.8459
0	53723	90.91	34.9583
0	53785	91.01	35.0704
0	53844	91.11	35.1819
0	53903	91.21	35.2929
0	53962	91.31	35.4032
0	54021	91.41	35.5128
0	54080	91.51	35.6216
0	54139	91.61	35.7295
0	54198	91.71	35.8365
0	54257	91.81	35.9426
0	54316	91.91	36.0476
0	54378	92.01	36.1517
0	54437	92.11	36.2547
0	54496	92.21	36.3566
0	54555	92.31	36.4576
0	54614	92.41	36.5574
0	54673	92.51	36.6562
0	54732	92.61	36.7539
0	54791	92.71	36.8506
0	54850	92.81	36.9463
0	54909	92.91	37.0411
0	54971	93.01	37.1351
0	55030	93.11	37.2282
0	55089	93.21	37.3206
0	55148	93.31	37.4124
0	55207	93.41	37.5035
0	55266	93.51	37.5941
0	55325	93.61	37.6843
0	55384	93.71	37.7741
0	55443	93.81	37.8635
0	55502	93.91	37.9526
0	55564	94.01	38.0414
0	55623	94.11	38.1301
0	55682	94.21	38.2186
0	55741	94.31	38.307
0	55800	94.41	38.3953
0	55859	94.51	38.4835
0	55918	94.61	38.5717
0	55977	94.71	38.6598
0	56036	94.81	38.748
0	56095	94.91	38.8361
0	56157	95.01	38.9243
0	56216	95.11	39.0125
0	56275	95.21	39.1008
0	56334	95.31	39.1891
0	56393	95.41	39.2774
0	56452	95.51	39.3658
0	56511	95.61	39.4542
0	56570	95.71	39.5427
0	56629	95.81	39.6312
0	56688	95.91	39.7198
0	56750	96.01	39.8084
0	56809	96.11	39.897
0	56868	96.21	39.9857
0	56927	96.31	40.0744
0	56986	96.41	40.1632
0	57045	96.51	40.252
0	57104	96.61	40.3408
0	57163	96.71	40.4296
0	57222	96.81	40.5184
0	57281	96.91	40.6073
0	57343	97.01	40.6962
0	57402	97.11	40.7851
0	57461	97.21	40.874
0	57520	97.31	40.9629
0	57579	97.41	41.0518
0	57638	97.51	41.1407
0	57697	97.61	41.2296
0	57756	97.71	41.3185
0	57815	97.81	41.4075
0	57874	97.91	41.4964
0	57936	98.01	41.5853
0	57995	98.11	41.6742
0	58054	98.21	41.7631
0	58113	98.31	41.8521
0	58172	98.41	41.941
0	58231	98.51	42.0299
0	58290	98.61	42.1188
0	58349	98.71	42.2077
0	58408	98.81	42.2966
0	58467	98.91	42.3855
0	58529	99.01	42.4744
0	58588	99.11	42.5633
0	58647	99.21	42.6523
0	58706	99.31	42.7412
0	58765	99.41	42.83
0	58824	99.51	42.9189
0	58883	99.61	43.0078
0	58942	99.71	43.0967
0	59001	99.81	43.1856
0	59060	99.91	43.2745
1	113	1.11	0
1	172	1.21	0
1	231	1.31	0
1	290	1.41	0
1	349	1.51	0
1	408	1.61	0
1	467	1.71	0
1	526	1.81	0
1	585	1.91	0
1	647	2.01	0
1	706	2.11	0
1	765	2.21	0
1	824	2.31	0
1	883	2.41	0
1	942	2.51	0
1	1001	2.61	0
1	1060	2.71	0
1	1119	2.81	0
1	1178	2.91	0
1	1240	3.01	0
1	1299	3.11	0
1	1358	3.21	0
1	1417	3.31	0
1	1476	3.41	0
1	1535	3.51	0
1	1594	3.61	0
1	1653	3.71	0
1	1712	3.81	0
1	1771	3.91	0
1	1833	4.01	0
1	1892	4.11	0
1	1951	4.21	0
1	2010	4.31	0
1	2069	4.41	0
1	2128	4.51	0
1	2187	4.61	0
1	2246	4.71	0
1	2305	4.81	0
1	2364	4.91	0
1	2426	5.01	0
1	2485	5.11	0
1	2544	5.21	0
1	2603	5.31	0
1	2662	5.41	0
1	2721	5.51	0
1	2780	5.61	0
1	2839	5.71	0
1	2898	5.81	0
1	2957	5.91	0
1	3019	6.01	0
1	3078	6.11	0
1	3137	6.21	0
1	3196	6.31	0
1	3255	6.41	0
1	3314	6.51	0
1	3373	6.61	0
1	3432	6.71	0
1	3491	6.81	0
1	3550	6.91	0
1	3612	7.01	0
1	3671	7.11	0
1	3730	7.21	0
1	3789	7.31	0
1	3848	7.41	0
1	3907	7.51	0
1	3966	7.61	0
1	4025	7.71	0
1	4084	7.81	0
1	4143	7.91	0
1	4205	8.01	0
1	4264	8.11	0
1	4323	8.21	0
1	4382	8.31	0
1	4441	8.41	0
1	4500	8.51	0
1	4559	8.61	0
1	4618	8.71	0
1	4677	8.81	0
1	4736	8.91	0
1	4798	9.01	0
1	4857	9.11	0
1	4916	9.21	0
1	4975	9.31	0
1	5034	9.41	0
1	5093	9.51	0
1	5152	9.61	0
1	5211	9.71	0
1	5270	9.81	0
1	5329	9.91	0
1	5422	10.01	0
1	5482	10.11	0
1	5542	10.21	0
1	5602	10.31	0
1	5662	10.41	0
1	5722	10.51	0
1	5782	10.61	0
1	5842	10.71	0
1	5902	10.81	0
1	5962	10.91	0
1	6025	11.01	0
1	6085	11.11	0
1	6145	11.21	0
1	6205	11.31	0
1	6265	11.41	0
1	6325	11.51	0
1	6385	11.61	0
1	6445	11.71	0
1	6505	11.81	0
1	6565	11.91	0
1	6628	12.01	0
1	6688	12.11	0
1	6748	12.21	0
1	6808	12.31	0
1	6868	12.41	0
1	6928	12.51	0
1	6988	12.61	0
1	7048	12.71	0
1	7108	12.81	0
1	7168	12.91	0
1	7231	13.01	0
1	7291	13.11	0
1	7351	13.21	0
1	7411	13.31	0
1	7471	13.41	0
1	7531	13.51	0
1	7591	13.61	0
1	7651	13.71	0
1	7711	13.81	0
1	7771	13.91	0
1	7834	14.01	0
1	7894	14.11	0
1	7954	14.21	0
1	8014	14.31	0
1	8074	14.41	0
1	8134	14.51	0
1	8194	14.61	0
1	8254	14.71	0
1	8314	14.81	0
1	8374	14.91	0
1	8437	15.01	0
1	8497	15.11	0
1	8557	15.21	0
1	8617	15.31	0
1	8677	15.41	0
1	8737	15.51	0
1	8797	15.61	0
1	8857	15.71	0
1	8917	15.81	0
1	8977	15.91	0
1	9040	16.01	0
1	9100	16.11	0
1	9160	16.21	0
1	9220	16.31	0
1	9280	16.41	0
1	9340	16.51	0
1	9400	16.61	0
1	9460	16.71	0
1	9520	16.81	0
1	9580	16.91	0
1	9643	17.01	0
1	9703	17.11	0
1	9763	17.21	0
1	9823	17.31	0
1	9883	17.41	0
1	9943	17.51	0
1	10003	17.61	0
1	10063	17.71	0
1	10123	17.81	0
1	10183	17.91	0
1	10246	18.01	0
1	10306	18.11	0
1	10366	18.21	0
1	10426	18.31	0
1	10486	18.41	0
1	10546	18.51	0
1	10606	18.61	0
1	10666	18.71	0
1	10726	18.81	0
1	10786	18.91	0
1	10849	19.01	0
1	10909	19.11	0
1	10969	19.21	0
1	11029	19.31	0
1	11089	19.41	0
1	11149	19.51	0
1	11209	19.61	0
1	11269	19.71	0
1	11329	19.81	0
1	11389	19.91	0
1	11452	20.01	0
1	11512	20.11	0
1	11572	20.21	0
1	11632	20.31	0
1	11692	20.41	0
1	11752	20.51	0
1	11812	20.61	0
1	11872	20.71	0
1	11932	20.81	0
1	11992	20.91	0
1	12055	21.01	0
1	12115	21.11	0
1	12175	21.21	0
1	12235	21.31	0
1	12295	21.41	0
1	12355	21.51	0
1	12415	21.61	0
1	12475	21.71	0
1	12535	21.81	0
1	12595	21.91	0
1	12658	22.01	0
1	12718	22.11	0
1	12778	22.21	0
1	12838	22.31	0
1	12898	22.41	0
1	12958	22.51	0
1	13018	22.61	0
1	13078	22.71	0
1	13138	22.81	0
1	13198	22.91	0
1	13261	23.01	0
1	13321	23.11	0
1	13381	23.21	0
1	13441	23.31	0
1	13501	23.41	0
1	13561	23.51	0
1	13621	23.61	0
1	13681	23.71	0
1	13741	23.81	0
1	13801	23.91	0
1	13864	24.01	0
1	13924	24.11	0
1	13984	24.21	0
1	14044	24.31	0
1	14104	24.41	0
1	14164	24.51	0
1	14224	24.61	0
1	14284	24.71	0
1	14344	24.81	0
1	14404	24.91	0
1	14467	25.01	0
1	14527	25.11	0
1	14587	25.21	0
1	14647	25.31	0
1	14707	25.41	0
1	14767	25.51	0
1	14827	25.61	0
1	14887	25.71	0
1	14947	25.81	0
1	15007	25.91	0
1	15070	26.01	0
1	15130	26.11	0
1	15190	26.21	0
1	15250	26.31	0
1	15310	26.41	0
1	15370	26.51	0
1	15430	26.61	0
1	15490	26.71	0
1	15550	26.81	0
1	15610	26.91	0
1	15673	27.01	0
1	15733	27.11	0
1	15793	27.21	0
1	15853	27.31	0
1	15913	27.41	0
1	15973	27.51	0
1	16033	27.61	0
1	16093	27.71	0
1	16153	27.81	0
1	16213	27.91	0
1	16276	28.01	0
1	16336	28.11	0
1	16396	28.21	0
1	16456	28.31	0
1	16516	28.41	0
1	16576	28.51	0
1	16636	28.61	0
1	16696	28.71	0
1	16756	28.81	0
1	16816	28.91	0
1	16879	29.01	0
1	16939	29.11	0
1	16999	29.21	0
1	17059	29.31	0
1	17119	29.41	0
1	17179	29.51	0
1	17239	29.61	0
1	17299	29.71	0
1	17359	29.81	0
1	17419	29.91	0
1	17482	30.01	0
1	17542	30.11	0
1	17602	30.21	0
1	17662	30.31	0
1	17722	30.41	0
1	17782	30.51	0
1	17842	30.61	0
1	17902	30.71	0
1	17962	30.81	0
1	18022	30.91	0
1	18085	31.01	0
1	18145	31.11	0
1	18205	31.21	0
1	18265	31.31	0
1	18325	31.41	0
1	18385	31.51	0
1	18445	31.61	0
1	18505	31.71	0
1	18565	31.81	0
1	18625	31.91	0
1	18688	32.01	0
1	18748	32.11	0
1	18808	32.21	0
1	18868	32.31	0
1	18928	32.41	0
1	18988	32.51	0
1	19048	32.61	0
1	19108	32.71	0
1	19168	32.81	0
1	19228	32.91	0
1	19291	33.01	0
1	19351	33.11	0
1	19411	33.21	0
1	19471	33.31	0
1	19531	33.41	0
1	19591	33.51	0
1	19651	33.61	0
1	19711	33.71	0
1	19771	33.81	0
1	19831	33.91	0
1	19894	34.01	0
1	19954	34.11	0
1	20014	34.21	0
1	20074	34.31	0
1	20134	34.41	0
1	20194	34.51	0
1	20254	34.61	0
1	20314	34.71	0
1	20374	34.81	0
1	20434	34.91	0
1	20497	35.01	0
1	20557	35.11	0
1	20617	35.21	0
1	20677	35.31	0
1	20737	35.41	0
1	20797	35.51	0
1	20857	35.61	0
1	20917	35.71	0
1	20977	35.81	0
1	21037	35.91	0
1	21100	36.01	0
1	21160	36.11	0
1	21220	36.21	0
1	21280	36.31	0
1	21406	36.41	0
1	21465	36.51	0
1	21524	36.61	0
1	21583	36.71	0
1	21642	36.81	0
1	21701	36.91	0
1	21763	37.01	0
1	21822	37.11	0
1	21881	37.21	0
1	21940	37.31	0
1	21999	37.41	0
1	22058	37.51	0
1	22117	37.61	0
1	22176	37.71	0
1	22235	37.81	0
1	22294	37.91	0
1	22356	38.01	0
1	22415	38.11	0
1	22474	38.21	0
1	22533	38.31	0
1	22592	38.41	0
1	22651	38.51	0
1	22710	38.61	0
1	22769	38.71	0
1	22828	38.81	0
1	22887	38.91	0
1	22949	39.01	0
1	23008	39.11	0
1	23067	39.21	0
1	23126	39.31	0
1	23185	39.41	0
1	23244	39.51	0
1	23303	39.61	0
1	23362	39.71	0
1	23421	39.81	0
1	23480	39.91	0
1	23542	40.01	0
1	23601	40.11	0
1	23660	40.21	0
1	23719	40.31	0
1	23778	40.41	0
1	23837	40.51	0
1	23896	40.61	0
1	23955	40.71	0
1	24014	40.81	0
1	24073	40.91	0
1	24135	41.01	0
1	24194	41.11	0
1	24253	41.21	0
1	24312	41.31	0
1	24371	41.41	0
1	24430	41.51	0
1	24489	41.61	0
1	24548	41.71	0
1	24607	41.81	0
1	24666	41.91	0
1	24728	42.01	0
1	24787	42.11	0
1	24846	42.21	0
1	24905	42.31	0
1	24964	42.41	0
1	25023	42.51	0
1	25082	42.61	0
1	25141	42.71	0
1	25200	42.81	0
1	25259	42.91	0
1	25321	43.01	0
1	25380	43.11	0
1	25439	43.21	0
1	25498	43.31	0
1	25557	43.41	0
1	25616	43.51	0
1	25675	43.61	0
1	25734	43.71	0
1	25793	43.81	0
1	25852	43.91	0
1	25914	44.01	0
1	25973	44.11	0
1	26032	44.21	0
1	26091	44.31	0
1	26150	44.41	0
1	26209	44.51	0
1	26268	44.61	0
1	26327	44.71	0
1	26386	44.81	0
1	26445	44.91	0
1	26507	45.01	0
1	26566	45.11	0
1	26625	45.21	0
1	26684	45.31	0
1	26743	45.41	0
1	26802	45.51	0
1	26861	45.61	0
1	26920	45.71	0
1	26979	45.81	0
1	27038	45.91	0
1	27100	46.01	0
1	27159	46.11	0
1	27218	46.21	0
1	27277	46.31	0
1	27336	46.41	0
1	27395	46.51	0
1	27454	46.61	0
1	27513	46.71	0
1	27572	46.81	0
1	27631	46.91	0
1	27693	47.01	0
1	27752	47.11	0
1	27811	47.21	0
1	27870	47.31	0
1	27929	47.41	0
1	27988	47.51	0
1	28047	47.61	0
1	28106	47.71	0
1	28165	47.81	0
1	28224	47.91	0
1	28286	48.01	0
1	28345	48.11	0
1	28404	48.21	0
1	28463	48.31	0
1	28522	48.41	0
1	28581	48.51	0
1	28640	48.61	0
1	28699	48.71	0
1	28758	48.81	0
1	28817	48.91	0
1	28879	49.01	0
1	28938	49.11	0
1	28997	49.21	0
1	29056	49.31	0
1	29115	49.41	0
1	29174	49.51	0
1	29233	49.61	0
1	29292	49.71	0
1	29351	49.81	0
1	29410	49.91	0
1	29472	50.01	0
1	29531	50.11	0
1	29590	50.21	0
1	29649	50.31	0
1	29708	50.41	0
1	29767	50.51	0
1	29826	50.61	0
1	29885	50.71	0
1	29944	50.81	0
1	30003	50.91	0
1	30065	51.01	0
1	30124	51.11	0
1	30183	51.21	0
1	30242	51.31	0
1	30301	51.41	0
1	30360	51.51	0
1	30419	51.61	0
1	30478	51.71	0
1	30537	51.81	0
1	30596	51.91	0
1	30658	52.01	0
1	30717	52.11	0
1	30776	52.21	0
1	30835	52.31	0
1	30894	52.41	0
1	30953	52.51	0
1	31012	52.61	0
1	31071	52.71	0
1	31130	52.81	0
1	31189	52.91	0
1	31251	53.01	0
1	31310	53.11	0
1	31369	53.21	0
1	31428	53.31	0
1	31487	53.41	0
1	31546	53.51	0
1	31605	53.61	0
1	31664	53.71	0
1	31723	53.81	0
1	31782	53.91	0
1	31844	54.01	0
1	31903	54.11	0
1	31962	54.21	0
1	32021	54.31	0
1	32080	54.41	0
1	32139	54.51	0
1	32198	54.61	0
1	32257	54.71	0
1	32316	54.81	0
1	32375	54.91	0
1	32437	55.01	0
1	32496	55.11	0
1	32555	55.21	0
1	32614	55.31	0
1	32673	55.41	0
1	32732	55.51	0
1	32791	55.61	0
1	32850	55.71	0
1	32909	55.81	0
1	32968	55.91	0
1	33030	56.01	0
1	33089	56.11	0
1	33148	56.21	0
1	33207	56.31	0
1	33266	56.41	0
1	33325	56.51	0
1	33384	56.61	0
1	33443	56.71	0
1	33502	56.81	0
1	33561	56.91	0
1	33623	57.01	0
1	33682	57.11	0
1	33741	57.21	0
1	33800	57.31	0
1	33859	57.41	0
1	33918	57.51	0
1	33977	57.61	0
1	34036	57.71	0
1	34095	57.81	0
1	34154	57.91	0
1	34216	58.01	0
1	34275	58.11	0
1	34334	58.21	0
1	34393	58.31	0
1	34452	58.41	0
1	34511	58.51	0
1	34570	58.61	0
1	34629	58.71	0
1	34688	58.81	0
1	34747	58.91	0
1	34809	59.01	0
1	34868	59.11	0
1	34927	59.21	0
1	34986	59.31	0
1	35045	59.41	0
1	35104	59.51	0
1	35163	59.61	0
1	35222	59.71	0
1	35281	59.81	0
1	35340	59.91	0
1	35402	60.01	0
1	35461	60.11	0
1	35520	60.21	0
1	35579	60.31	0
1	35638	60.41	0
1	35697	60.51	0
1	35756	60.61	0
1	35815	60.71	0
1	35874	60.81	0
1	35933	60.91	0
1	35995	61.01	0
1	36054	61.11	0
1	36113	61.21	0
1	36172	61.31	0
1	36231	61.41	0
1	36290	61.51	0
1	36349	61.61	0
1	36408	61.71	0
1	36467	61.81	0
1	36526	61.91	0
1	36588	62.01	0
1	36647	62.11	0
1	36706	62.21	0
1	36765	62.31	0
1	36824	62.41	0
1	36883	62.51	0
1	36942	62.61	0
1	37001	62.71	0
1	37060	62.81	0
1	37119	62.91	0
1	37181	63.01	0
1	37240	63.11	0
1	37299	63.21	0
1	37358	63.31	0
1	37417	63.41	0
1	37476	63.51	0
1	37535	63.61	0
1	37594	63.71	0
1	37653	63.81	0
1	37712	63.91	0
1	37774	64.01	0
1	37833	64.11	0
1	37892	64.21	0
1	37951	64.31	0
1	38010	64.41	0
1	38069	64.51	0
1	38128	64.61	0
1	38187	64.71	0
1	38246	64.81	0
1	38305	64.91	0
1	38367	65.01	0
1	38426	65.11	0
1	38485	65.21	0
1	38544	65.31	0
1	38603	65.41	0
1	38662	65.51	0
1	38721	65.61	0
1	38780	65.71	0
1	38839	65.81	0
1	38898	65.91	0
1	38960	66.01	0
1	39019	66.11	0
1	39078	66.21	0
1	39137	66.31	0
1	39196	66.41	0
1	39255	66.51	0
1	39314	66.61	0
1	39373	66.71	0
1	39432	66.81	0
1	39491	66.91	0
1	39553	67.01	0
1	39612	67.11	0
1	39671	67.21	0
1	39730	67.31	0
1	39789	67.41	0
1	39848	67.51	0
1	39907	67.61	0
1	39966	67.71	0
1	40025	67.81	0
1	40084	67.91	0
1	40146	68.01	0
1	40205	68.11	0
1	40264	68.21	0
1	40323	68.31	0
1	40382	68.41	0
1	40441	68.51	0
1	40500	68.61	0
1	40559	68.71	0
1	40618	68.81	0
1	40677	68.91	0
1	40739	69.01	0
1	40798	69.11	0
1	40857	69.21	0
1	40916	69.31	0
1	40975	69.41	0
1	41034	69.51	0
1	41093	69.61	0
1	41152	69.71	0
1	41211	69.81	0
1	41270	69.91	0
1	41332	70.01	0
1	41391	70.11	0
1	41450	70.21	0
1	41509	70.31	0
1	41568	70.41	0
1	41627	70.51	0
1	41686	70.61	0
1	41745	70.71	0
1	41804	70.81	0
1	41863	70.91	0
1	41925	71.01	0
1	41984	71.11	0
1	42043	71.21	0
1	42102	71.31	0
1	42161	71.41	0
1	42220	71.51	0
1	42279	71.61	0
1	42338	71.71	0
1	42397	71.81	0
1	42456	71.91	0
1	42518	72.01	0
1	42577	72.11	0
1	42636	72.21	0
1	42695	72.31	0
1	42754	72.41	0
1	42813	72.51	0
1	42872	72.61	0
1	42931	72.71	0
1	42990	72.81	0
1	43049	72.91	0
1	43111	73.01	0
1	43170	73.11	0
1	43229	73.21	0
1	43288	73.31	0
1	43347	73.41	0
1	43406	73.51	0
1	43465	73.61	0
1	43524	73.71	0
1	43583	73.81	0
1	43642	73.91	0
1	43704	74.01	0
1	43763	74.11	0
1	43822	74.21	0
1	43881	74.31	0
1	43940	74.41	0
1	43999	74.51	0
1	44058	74.61	0
1	44117	74.71	0
1	44176	74.81	0
1	44235	74.91	0
1	44297	75.01	0
1	44356	75.11	0
1	44415	75.21	0
1	44474	75.31	0
1	44533	75.41	0
1	44592	75.51	0
1	44651	75.61	0
1	44710	75.71	0
1	44769	75.81	0
1	44828	75.91	0
1	44890	76.01	0
1	44949	76.11	0
1	45008	76.21	0
1	45067	76.31	0
1	45126	76.41	0
1	45185	76.51	0
1	45244	76.61	0
1	45303	76.71	0
1	45362	76.81	0
1	45421	76.91	0
1	45483	77.01	0
1	45542	77.11	0
1	45601	77.21	0
1	45660	77.31	0
1	45719	77.41	0
1	45778	77.51	0
1	45837	77.61	0
1	45896	77.71	0
1	45955	77.81	0
1	46014	77.91	0
1	46076	78.01	0
1	46135	78.11	0
1	46194	78.21	0
1	46253	78.31	0
1	46312	78.41	0
1	46371	78.51	0
1	46430	78.61	0
1	46489	78.71	0
1	46548	78.81	0
1	46607	78.91	0
1	46669	79.01	0
1	46728	79.11	0
1	46787	79.21	0
1	46846	79.31	0
1	46905	79.41	0
1	46964	79.51	0
1	47023	79.61	0
1	47082	79.71	0
1	47141	79.81	0
1	47200	79.91	0
1	47262	80.01	0
1	47321	80.11	0
1	47380	80.21	0
1	47439	80.31	0
1	47498	80.41	0
1	47557	80.51	0
1	47616	80.61	0
1	47675	80.71	0
1	47734	80.81	0
1	47793	80.91	0
1	47855	81.01	0
1	47914	81.11	0
1	47973	81.21	0
1	48032	81.31	0
1	48091	81.41	0
1	48150	81.51	0
1	48209	81.61	0
1	48268	81.71	0
1	48327	81.81	0
1	48386	81.91	0
1	48448	82.01	0
1	48507	82.11	0
1	48566	82.21	0
1	48625	82.31	0
1	48684	82.41	0
1	48743	82.51	0
1	48802	82.61	0
1	48861	82.71	0
1	48920	82.81	0
1	48979	82.91	0
1	49041	83.01	0
1	49100	83.11	0
1	49159	83.21	0
1	49218	83.31	0
1	49277	83.41	0
1	49336	83.51	0
1	49395	83.61	0
1	49454	83.71	0
1	49513	83.81	0
1	49572	83.91	0
1	49634	84.01	0
1	49693	84.11	0
1	49752	84.21	0
1	49811	84.31	0
1	49870	84.41	0
1	49929	84.51	0
1	49988	84.61	0
1	50047	84.71	0
1	50106	84.81	0
1	50165	84.91	0
1	50227	85.01	0
1	50286	85.11	0
1	50345	85.21	0
1	50404	85.31	0
1	50463	85.41	0
1	50522	85.51	0
1	50581	85.61	0
1	50640	85.71	0
1	50699	85.81	0
1	50758	85.91	0
1	50820	86.01	0
1	50879	86.11	0
1	50938	86.21	0
1	50997	86.31	0
1	51056	86.41	0
1	51115	86.51	0
1	51174	86.61	0
1	51233	86.71	0
1	51292	86.81	0
1	51351	86.91	0
1	51413	87.01	0
1	51472	87.11	0
1	51531	87.21	0
1	51590	87.31	0
1	51649	87.41	0
1	51708	87.51	0
1	51767	87.61	0
1	51826	87.71	0
1	51885	87.81	0
1	51944	87.91	0
1	52006	88.01	0
1	52065	88.11	0
1	52124	88.21	0
1	52183	88.31	0
1	52242	88.41	0
1	52301	88.51	0
1	52360	88.61	0.890202
1	52419	88.71	0.896726
1	52478	88.81	0.90762
1	52537	88.91	0.92178
1	52599	89.01	0.938246
1	52658	89.11	0.95619
1	52717	89.21	0.974903
1	52776	89.31	0.993791
1	52835	89.41	1.01236
1	52894	89.51	1.0302
1	52953	89.61	1.047
1	53012	89.71	1.0625
1	53071	89.81	1.07652
1	53130	89.91	1.08894
1	53192	90.01	1.09967
1	53251	90.11	1.10867
1	53310	90.21	1.11593
1	53369	90.31	1.12149
1	53428	90.41	1.12538
1	53487	90.51	1.12767
1	53546	90.61	1.12845
1	53605	90.71	1.1278
1	53664	90.81	1.12582
1	53723	90.91	1.12262
1	53785	91.01	1.1183
1	53844	91.11	1.11297
1	53903	91.21	1.10672
1	53962	91.31	1.09967
1	54021	91.41	1.09192
1	54080	91.51	1.08354
1	54139	91.61	1.07464
1	54198	91.71	1.0653
1	54257	91.81	1.05558
1	54316	91.91	1.04557
1	54378	92.01	1.03533
1	54437	92.11	1.0249
1	54496	92.21	1.01436
1	54555	92.31	1.00374
1	54614	92.41	0.99308
1	54673	92.51	0.982478
1	54732	92.61	0.972102
1	54791	92.71	0.962097
1	54850	92.81	0.952578
1	54909	92.91	0.943626
1	54971	93.01	0.935301
1	55030	93.11	0.927639
1	55089	93.21	0.920659
1	55148	93.31	0.914363
1	55207	93.41	0.908742
1	55266	93.51	0.903775
1	55325	93.61	0.899433
1	55384	93.71	0.895682
1	55443	93.81	0.892484
1	55502	93.91	0.889796
1	55564	94.01	0.887574
1	55623	94.11	0.885776
1	55682	94.21	0.884357
1	55741	94.31	0.883274
1	55800	94.41	0.882486
1	55859	94.51	0.881955
1	55918	94.61	0.881644
1	55977	94.71	0.881519
1	56036	94.81	0.881549
1	56095	94.91	0.881706
1	56157	95.01	0.881963
1	56216	95.11	0.882298
1	56275	95.21	0.882692
1	56334	95.31	0.883126
1	56393	95.41	0.883586
1	56452	95.51	0.884059
1	56511	95.61	0.884533
1	56570	95.71	0.885001
1	56629	95.81	0.885454
1	56688	95.91	0.885888
1	56750	96.01	0.886298
1	56809	96.11	0.886681
1	56868	96.21	0.887035
1	56927	96.31	0.887358
1	56986	96.41	0.887652
1	57045	96.51	0.887915
1	57104	96.61	0.888148
1	57163	96.71	0.888353
1	57222	96.81	0.888531
1	57281	96.91	0.888684
1	57343	97.01	0.888813
1	57402	97.11	0.88892
1	57461	97.21	0.889008
1	57520	97.31	0.889078
1	57579	97.41	0.889132
1	57638	97.51	0.889173
1	57697	97.61	0.889201
1	57756	97.71	0.889219
1	57815	97.81	0.889228
1	57874	97.91	0.889229
1	57936	98.01	0.889224
1	57995	98.11	0.889214
1	58054	98.21	0.889201
1	58113	98.31	0.889184
1	58172	98.41	0.889166
1	58231	98.51	0.889145
1	58290	98.61	0.889125
1	58349	98.71	0.889103
1	58408	98.81	0.889082
1	58467	98.91	0.889062
1	58529	99.01	0.889042
1	58588	99.11	0.889023
1	58647	99.21	0.889006
1	58706	99.31	0.88899
1	58765	99.41	0.888975
1	58824	99.51	0.888961
1	58883	99.61	0.888949
1	58942	99.71	0.888938
1	59001	99.81	0.888928
1	59060	99.91	0.88892
2	113	1.11	0
2	172	1.21	0
2	231	1.31	0
2	290	1.41	0
2	349	1.51	0
2	408	1.61	0
2	467	1.71	0
2	526	1.81	0
2	585	1.91	0
2	647	2.01	0
2	706	2.11	0
2	765	2.21	0
2	824	2.31	0
2	883	2.41	0
2	942	2.51	0
2	1001	2.61	0
2	1060	2.71	0
2	1119	2.81	0
2	1178	2.91	0
2	1240	3.01	0
2	1299	3.11	0
2	1358	3.21	0
2	1417	3.31	0
2	1476	3.41	0
2	1535	3.51	0
2	1594	3.61	0
2	1653	3.71	0
2	1712	3.81	0
2	1771	3.91	0
2	1833	4.01	0
2	1892	4.11	0
2	1951	4.21	0
2	2010	4.31	0
2	2069	4.41	0
2	2128	4.51	0
2	2187	4.61	0
2	2246	4.71	0
2	2305	4.81	0
2	2364	4.91	0
2	2426	5.01	0
2	2485	5.11	0
2	2544	5.21	0
2	2603	5.31	0
2	2662	5.41	0
2	2721	5.51	0
2	2780	5.61	0
2	2839	5.71	0
2	2898	5.81	0
2	2957	5.91	0
2	3019	6.01	0
2	3078	6.11	0
2	3137	6.21	0
2	3196	6.31	0
2	3255	6.41	0
2	3314	6.51	0
2	3373	6.61	0
2	3432	6.71	0
2	3491	6.81	0
2	3550	6.91	0
2	3612	7.01	0
2	3671	7.11	0
2	3730	7.21	0
2	3789	7.31	0
2	3848	7.41	0
2	3907	7.51	0
2	3966	7.61	0
2	4025	7.71	0
2	4084	7.81	0
2	4143	7.91	0
2	4205	8.01	0
2	4264	8.11	0
2	4323	8.21	0
2	4382	8.31	0
2	4441	8.41	0
2	4500	8.51	0
2	4559	8.61	0
2	4618	8.71	0
2	4677	8.81	0
2	4736	8.91	0
2	4798	9.01	0
2	4857	9.11	0
2	4916	9.21	0
2	4975	9.31	0
2	5034	9.41	0
2	5093	9.51	0
2	5152	9.61	0
2	5211	9.71	0
2	5270	9.81	0
2	5329	9.91	0
2	5422	10.01	0
2	5482	10.11	0
2	5542	10.21	0
2	5602	10.31	0
2	5662	10.41	0
2	5722	10.51	0
2	5782	10.61	0
2	5842	10.71	0
2	5902	10.81	0
2	5962	10.91	0
2	6025	11.01	0
2	6085	11.11	0
2	6145	11.21	0
2	6205	11.31	0
2	6265	11.41	0
2	6325	11.51	0
2	6385	11.61	0
2	6445	11.71	0
2	6505	11.81	0
2	6565	11.91	0
2	6628	12.01	0
2	6688	12.11	0
2	6748	12.21	0
2	6808	12.31	0
2	6868	12.41	0
2	6928	12.51	0
2	6988	12.61	0
2	7048	12.71	0
2	7108	12.81	0
2	7168	12.91	0
2	7231	13.01	0
2	7291	13.11	0
2	7351	13.21	0
2	7411	13.31	0
2	7471	13.41	0
2	7531	13.51	0
2	7591	13.61	0
2	7651	13.71	0
2	7711	13.81	0
2	7771	13.91	0
2	7834	14.01	0
2	7894	14.11	0
2	7954	14.21	0
2	8014	14.31	0
2	8074	14.41	0
2	8134	14.51	0
2	8194	14.61	0
2	8254	14.71	0
2	8314	14.81	0
2	8374	14.91	0
2	8437	15.01	0
2	8497	15.11	0
2	8557	15.21	0
2	8617	15.31	0
2	8677	15.41	0
2	8737	15.51	0
2	8797	15.61	0
2	8857	15.71	0
2	8917	15.81	0
2	8977	15.91	0
2	9040	16.01	0
2	9100	16.11	0
2	9160	16.21	0
2	9220	16.31	0
2	9280	16.41	0
2	9340	16.51	0
2	9400	16.61	0
2	9460	16.71	0
2	9520	16.81	0
2	9580	16.91	0
2	9643	17.01	0
2	9703	17.11	0
2	9763	17.21	0
2	9823	17.31	0
2	9883	17.41	0
2	9943	17.51	0
2	10003	17.61	0
2	10063	17.71	0
2	10123	17.81	0
2	10183	17.91	0
2	10246	18.01	0
2	10306	18.11	0
2	10366	18.21	0
2	10426	18.31	0
2	10486	18.41	0
2	10546	18.51	0
2	10606	18.61	0
2	10666	18.71	0
2	10726	18.81	0
2	10786	18.91	0
2	10849	19.01	0
2	10909	19.11	0
2	10969	19.21	0
2	11029	19.31	0
2	11089	19.41	0
2	11149	19.51	0
2	11209	19.61	0
2	11269	19.71	0
2	11329	19.81	0
2	11389	19.91	0
2	11452	20.01	0
2	11512	20.11	0
2	11572	20.21	0
2	11632	20.31	0
2	11692	20.41	0
2	11752	20.51	0
2	11812	20.61	0
2	11872	20.71	0
2	11932	20.81	0
2	11992	20.91	0
2	12055	21.01	0
2	12115	21.11	0
2	12175	21.21	0
2	12235	21.31	0
2	12295	21.41	0
2	12355	21.51	0
2	12415	21.61	0
2	12475	21.71	0
2	12535	21.81	0
2	12595	21.91	0
2	12658	22.01	0
2	12718	22.11	0
2	12778	22.21	0
2	12838	22.31	0
2	12898	22.41	0
2	12958	22.51	0
2	13018	22.61	0
2	13078	22.71	0
2	13138	22.81	0
2	13198	22.91	0
2	13261	23.01	0
2	13321	23.11	0
2	13381	23.21	0
2	13441	23.31	0
2	13501	23.41	0
2	13561	23.51	0
2	13621	23.61	0
2	13681	23.71	0
2	13741	23.81	0
2	13801	23.91	0
2	13864	24.01	0
2	13924	24.11	0
2	13984	24.21	0
2	14044	24.31	0
2	14104	24.41	0
2	14164	24.51	0
2	14224	24.61	0
2	14284	24.71	0
2	14344	24.81	0
2	14404	24.91	0
2	14467	25.01	0
2	14527	25.11	0
2	14587	25.21	0
2	14647	25.31	0
2	14707	25.41	0
2	14767	25.51	0
2	14827	25.61	0
2	14887	25.71	0
2	14947	25.81	0
2	15007	25.91	0
2	15070	26.01	0
2	15130	26.11	0
2	15190	26.21	0
2	15250	26.31	0
2	15310	26.41	0
2	15370	26.51	0
2	15430	26.61	0
2	15490	26.71	0
2	15550	26.81	0
2	15610	26.91	0
2	15673	27.01	0
2	15733	27.11	0
2	15793	27.21	0
2	15853	27.31	0
2	15913	27.41	0
2	15973	27.51	0
2	16033	27.61	0
2	16093	27.71	0
2	16153	27.81	0
2	16213	27.91	0
2	16276	28.01	0
2	16336	28.11	0
2	16396	28.21	0
2	16456	28.31	0
2	16516	28.41	0
2	16576	28.51	0
2	16636	28.61	0
2	16696	28.71	0
2	16756	28.81	0
2	16816	28.91	0
2	16879	29.01	0
2	16939	29.11	0
2	16999	29.21	0
2	17059	29.31	0
2	17119	29.41	0
2	17179	29.51	0
2	17239	29.61	0
2	17299	29.71	0
2	17359	29.81	0
2	17419	29.91	0
2	17482	30.01	0
2	17542	30.11	0
2	17602	30.21	0
2	17662	30.31	0
2	17722	30.41	0
2	17782	30.51	0
2	17842	30.61	0
2	17902	30.71	0
2	17962	30.81	0
2	18022	30.91	0
2	18085	31.01	0
2	18145	31.11	0
2	18205	31.21	0
2	18265	31.31	0
2	18325	31.41	0
2	18385	31.51	0
2	18445	31.61	0
2	18505	31.71	0
2	18565	31.81	0
2	18625	31.91	0
2	18688	32.01	0
2	18748	32.11	0
2	18808	32.21	0
2	18868	32.31	0
2	18928	32.41	0
2	18988	32.51	0
2	19048	32.61	0
2	19108	32.71	0
2	19168	32.81	0
2	19228	32.91	0
2	19291	33.01	0
2	19351	33.11	0
2	19411	33.21	0
2	19471	33.31	0
2	19531	33.41	0
2	19591	33.51	0
2	19651	33.61	0
2	19711	33.71	0
2	19771	33.81	0
2	19831	33.91	0
2	19894	34.01	0
2	19954	34.11	0
2	20014	34.21	0
2	20074	34.31	0
2	20134	34.41	0
2	20194	34.51	0
2	20254	34.61	0
2	20314	34.71	0
2	20374	34.81	0
2	20434	34.91	0
2	20497	35.01	0
2	20557	35.11	0
2	20617	35.21	0
2	20677	35.31	0
2	20737	35.41	0
2	20797	35.51	0
2	20857	35.61	0
2	20917	35.71	0
2	20977	35.81	0
2	21037	35.91	0
2	21100	36.01	0
2	21160	36.11	0
2	21220	36.21	0
2	21280	36.31	0
2	21406	36.41	0
2	21465	36.51	0
2	21524	36.61	0
2	21583	36.71	0
2	21642	36.81	0
2	21701	36.91	0
2	21763	37.01	0
2	21822	37.11	0
2	21881	37.21	0
2	21940	37.31	0
2	21999	37.41	0
2	22058	37.51	0
2	22117	37.61	0
2	22176	37.71	0
2	22235	37.81	0
2	22294	37.91	0
2	22356	38.01	0
2	22415	38.11	0
2	22474	38.21	0
2	22533	38.31	0
2	22592	38.41	0
2	22651	38.51	0
2	22710	38.61	0
2	22769	38.71	0
2	22828	38.81	0
2	22887	38.91	0
2	22949	39.01	0
2	23008	39.11	0
2	23067	39.21	0
2	23126	39.31	0
2	23185	39.41	0
2	23244	39.51	0
2	23303	39.61	0
2	23362	39.71	0
2	23421	39.81	0
2	23480	39.91	0
2	23542	40.01	0
2	23601	40.11	0
2	23660	40.21	0
2	23719	40.31	0
2	23778	40.41	0
2	23837	40.51	0
2	23896	40.61	0
2	23955	40.71	0
2	24014	40.81	0
2	24073	40.91	0
2	24135	41.01	0
2	24194	41.11	0
2	24253	41.21	0
2	24312	41.31	0
2	24371	41.41	0
2	24430	41.51	0
2	24489	41.61	0
2	24548	41.71	0
2	24607	41.81	0
2	24666	41.91	0
2	24728	42.01	0
2	24787	42.11	0
2	24846	42.21	0
2	24905	42.31	0
2	24964	42.41	0
2	25023	42.51	0
2	25082	42.61	0
2	25141	42.71	0
2	25200	42.81	0
2	25259	42.91	0
2	25321	43.01	0
2	25380	43.11	0
2	25439	43.21	0
2	25498	43.31	0
2	25557	43.41	0
2	25616	43.51	0
2	25675	43.61	0
2	25734	43.71	0
2	25793	43.81	0
2	25852	43.91	0
2	25914	44.01	0
2	25973	44.11	0
2	26032	44.21	0
2	26091	44.31	0
2	26150	44.41	0
2	26209	44.51	0
2	26268	44.61	0
2	26327	44.71	0
2	26386	44.81	0
2	26445	44.91	0
2	26507	45.01	0
2	26566	45.11	0
2	26625	45.21	0
2	26684	45.31	0
2	26743	45.41	0
2	26802	45.51	0
2	26861	45.61	0
2	26920	45.71	0
2	26979	45.81	0
2	27038	45.91	0
2	27100	46.01	0
2	27159	46.11	0
2	27218	46.21	0
2	27277	46.31	0
2	27336	46.41	0
2	27395	46.51	0
2	27454	46.61	0
2	27513	46.71	0
2	27572	46.81	0
2	27631	46.91	0
2	27693	47.01	0
2	27752	47.11	0
2	27811	47.21	0
2	27870	47.31	0
2	27929	47.41	0
2	27988	47.51	0
2	28047	47.61	0
2	28106	47.71	0
2	28165	47.81	0
2	28224	47.91	0
2	28286	48.01	0
2	28345	48.11	0
2	28404	48.21	0
2	28463	48.31	0
2	28522	48.41	0
2	28581	48.51	0
2	28640	48.61	0
2	28699	48.71	0
2	28758	48.81	0
2	28817	48.91	0
2	28879	49.01	0
2	28938	49.11	0
2	28997	49.21	0
2	29056	49.31	0
2	29115	49.41	0
2	29174	49.51	0
2	29233	49.61	0
2	29292	49.71	0
2	29351	49.81	0
2	29410	49.91	0
2	29472	50.01	0
2	29531	50.11	0
2	29590	50.21	0
2	29649	50.31	0
2	29708	50.41	0
2	29767	50.51	0
2	29826	50.61	0
2	29885	50.71	0
2	29944	50.81	0
2	30003	50.91	0
2	30065	51.01	0
2	30124	51.11	0
2	30183	51.21	0
2	30242	51.31	0
2	30301	51.41	0
2	30360	51.51	0
2	30419	51.61	0
2	30478	51.71	0
2	30537	51.81	0
2	30596	51.91	0
2	30658	52.01	0
2	30717	52.11	0
2	30776	52.21	0
2	30835	52.31	0
2	30894	52.41	0
2	30953	52.51	0
2	31012	52.61	0
2	31071	52.71	0
2	31130	52.81	0
2	31189	52.91	0
2	31251	53.01	0
2	31310	53.11	0
2	31369	53.21	0
2	31428	53.31	0
2	31487	53.41	0
2	31546	53.51	0
2	31605	53.61	0
2	31664	53.71	0
2	31723	53.81	0
2	31782	53.91	0
2	31844	54.01	0
2	31903	54.11	0
2	31962	54.21	0
2	32021	54.31	0
2	32080	54.41	0
2	32139	54.51	0
2	32198	54.61	0
2	32257	54.71	0
2	32316	54.81	0
2	32375	54.91	0
2	32437	55.01	0
2	32496	55.11	0
2	32555	55.21	0
2	32614	55.31	0
2	32673	55.41	0
2	32732	55.51	0
2	32791	55.61	0
2	32850	55.71	0
2	32909	55.81	0
2	32968	55.91	0
2	33030	56.01	0
2	33089	56.11	0
2	33148	56.21	0
2	33207	56.31	0
2	33266	56.41	0
2	33325	56.51	0
2	33384	56.61	0
2	33443	56.71	0
2	33502	56.81	0
2	33561	56.91	0
2	33623	57.01	0
2	33682	57.11	0
2	33741	57.21	0
2	33800	57.31	0
2	33859	57.41	0
2	33918	57.51	0
2	33977	57.61	0
2	34036	57.71	0
2	34095	57.81	0
2	34154	57.91	0
2	34216	58.01	0
2	34275	58.11	0
2	34334	58.21	0
2	34393	58.31	0
2	34452	58.41	0
2	34511	58.51	0
2	34570	58.61	0
2	34629	58.71	0
2	34688	58.81	0
2	34747	58.91	0
2	34809	59.01	0
2	34868	59.11	0
2	34927	59.21	0
2	34986	59.31	0
2	35045	59.41	0
2	35104	59.51	0
2	35163	59.61	0
2	35222	59.71	0
2	35281	59.81	0
2	35340	59.91	0
2	35402	60.01	0
2	35461	60.11	0
2	35520	60.21	0
2	35579	60.31	0
2	35638	60.41	0
2	35697	60.51	0
2	35756	60.61	0
2	35815	60.71	0
2	35874	60.81	0
2	35933	60.91	0
2	35995	61.01	0
2	36054	61.11	0
2	36113	61.21	0
2	36172	61.31	0
2	36231	61.41	0
2	36290	61.51	0
2	36349	61.61	0
2	36408	61.71	0
2	36467	61.81	0
2	36526	61.91	0
2	36588	62.01	0
2	36647	62.11	0
2	36706	62.21	0
2	36765	62.31	0
2	36824	62.41	0
2	36883	62.51	0
2	36942	62.61	0
2	37001	62.71	0
2	37060	62.81	0
2	37119	62.91	0
2	37181	63.01	0
2	37240	63.11	0
2	37299	63.21	0
2	37358	63.31	0
2	37417	63.41	0
2	37476	63.51	0
2	37535	63.61	0
2	37594	63.71	0
2	37653	63.81	0
2	37712	63.91	0
2	37774	64.01	0
2	37833	64.11	0
2	37892	64.21	0
2	37951	64.31	0
2	38010	64.41	0
2	38069	64.51	0
2	38128	64.61	0
2	38187	64.71	0
2	38246	64.81	0
2	38305	64.91	0
2	38367	65.01	0
2	38426	65.11	0
2	38485	65.21	0
2	38544	65.31	0
2	38603	65.41	0
2	38662	65.51	0
2	38721	65.61	0
2	38780	65.71	0
2	38839	65.81	0
2	38898	65.91	0
2	38960	66.01	0
2	39019	66.11	0
2	39078	66.21	0
2	39137	66.31	0
2	39196	66.41	0
2	39255	66.51	0
2	39314	66.61	0
2	39373	66.71	0
2	39432	66.81	0
2	39491	66.91	0
2	39553	67.01	0
2	39612	67.11	0
2	39671	67.21	0
2	39730	67.31	0
2	39789	67.41	0
2	39848	67.51	0
2	39907	67.61	0
2	39966	67.71	0
2	40025	67.81	0
2	40084	67.91	0
2	40146	68.01	0
2	40205	68.11	0
2	40264	68.21	0
2	40323	68.31	0
2	40382	68.41	0
2	40441	68.51	0
2	40500	68.61	0
2	40559	68.71	0
2	40618	68.81	0
2	40677	68.91	0
2	40739	69.01	0
2	40798	69.11	0
2	40857	69.21	0
2	40916	69.31	0
2	40975	69.41	0
2	41034	69.51	0
2	41093	69.61	0
2	41152	69.71	0
2	41211	69.81	0
2	41270	69.91	0
2	41332	70.01	0
2	41391	70.11	0
2	41450	70.21	0
2	41509	70.31	0
2	41568	70.41	0
2	41627	70.51	0
2	41686	70.61	0
2	41745	70.71	0
2	41804	70.81	0
2	41863	70.91	0
2	41925	71.01	0
2	41984	71.11	0
2	42043	71.21	0
2	42102	71.31	0
2	42161	71.41	0
2	42220	71.51	0
2	42279	71.61	0
2	42338	71.71	0
2	42397	71.81	0
2	42456	71.91	0
2	42518	72.01	0
2	42577	72.11	0
2	42636	72.21	0
2	42695	72.31	0
2	42754	72.41	0
2	42813	72.51	0
2	42872	72.61	0
2	42931	72.71	0
2	42990	72.81	0
2	43049	72.91	0
2	43111	73.01	0
2	43170	73.11	0
2	43229	73.21	0
2	43288	73.31	0
2	43347	73.41	0
2	43406	73.51	0
2	43465	73.61	0
2	43524	73.71	0
2	43583	73.81	0
2	43642	73.91	0
2	43704	74.01	0
2	43763	74.11	0
2	43822	74.21	0
2	43881	74.31	0
2	43940	74.41	0
2	43999	74.51	0
2	44058	74.61	0
2	44117	74.71	0
2	44176	74.81	0
2	44235	74.91	0
2	44297	75.01	0
2	44356	75.11	0
2	44415	75.21	0
2	44474	75.31	0
2	44533	75.41	0
2	44592	75.51	0
2	44651	75.61	0
2	44710	75.71	0
2	44769	75.81	0
2	44828	75.91	0
2	44890	76.01	0
2	44949	76.11	0
2	45008	76.21	0
2	45067	76.31	0
2	45126	76.41	0
2	45185	76.51	0
2	45244	76.61	0
2	45303	76.71	0
2	45362	76.81	0
2	45421	76.91	0
2	45483	77.01	0
2	45542	77.11	0
2	45601	77.21	0
2	45660	77.31	0
2	45719	77.41	0
2	45778	77.51	0
2	45837	77.61	0
2	45896	77.71	0
2	45955	77.81	0
2	46014	77.91	0
2	46076	78.01	0
2	46135	78.11	0
2	46194	78.21	0
2	46253	78.31	0
2	46312	78.41	0
2	46371	78.51	0
2	46430	78.61	0
2	46489	78.71	0
2	46548	78.81	0
2	46607	78.91	0
2	46669	79.01	0
2	46728	79.11	0
2	46787	79.21	0
2	46846	79.31	0
2	46905	79.41	0
2	46964	79.51	0
2	47023	79.61	0
2	47082	79.71	0
2	47141	79.81	0
2	47200	79.91	0
2	47262	80.01	0
2	47321	80.11	0
2	47380	80.21	0
2	47439	80.31	0
2	47498	80.41	0
2	47557	80.51	0
2	47616	80.61	0
2	47675	80.71	0
2	47734	80.81	0
2	47793	80.91	0
2	47855	81.01	0
2	47914	81.11	0
2	47973	81.21	0
2	48032	81.31	0
2	48091	81.41	0
2	48150	81.51	0
2	48209	81.61	0
2	48268	81.71	0
2	48327	81.81	0
2	48386	81.91	0
2	48448	82.01	0
2	48507	82.11	0
2	48566	82.21	0
2	48625	82.31	0
2	48684	82.41	0
2	48743	82.51	0
2	48802	82.61	0
2	48861	82.71	0
2	48920	82.81	0
2	48979	82.91	0
2	49041	83.01	0
2	49100	83.11	0
2	49159	83.21	0
2	49218	83.31	0
2	49277	83.41	0
2	49336	83.51	0
2	49395	83.61	0
2	49454	83.71	0
2	49513	83.81	0
2	49572	83.91	0
2	49634	84.01	0
2	49693	84.11	0
2	49752	84.21	0
2	49811	84.31	0
2	49870	84.41	0
2	49929	84.51	0
2	49988	84.61	0
2	50047	84.71	0
2	50106	84.81	0
2	50165	84.91	0
2	50227	85.01	0
2	50286	85.11	0
2	50345	85.21	0
2	50404	85.31	0
2	50463	85.41	0
2	50522	85.51	0
2	50581	85.61	0
2	50640	85.71	0
2	50699	85.81	0
2	50758	85.91	0
2	50820	86.01	0
2	50879	86.11	0
2	50938	86.21	0
2	50997	86.31	0
2	51056	86.41	0
2	51115	86.51	0
2	51174	86.61	0
2	51233	86.71	0
2	51292	86.81	0
2	51351	86.91	0
2	51413	87.01	0
2	51472	87.11	0
2	51531	87.21	0
2	51590	87.31	0
2	51649	87.41	0
2	51708	87.51	0
2	51767	87.61	0
2	51826	87.71	0
2	51885	87.81	0
2	51944	87.91	0
2	52006	88.01	0
2	52065	88.11	0
2	52124	88.21	0
2	52183	88.31	0
2	52242	88.41	0
2	52301	88.51	0
2	52360	88.61	0
2	52419	88.71	0
2	52478	88.81	0
2	52537	88.91	0
2	52599	89.01	0
2	52658	89.11	0
2	52717	89.21	0
2	52776	89.31	0
2	52835	89.41	0
2	52894	89.51	0
2	52953	89.61	0
2	53012	89.71	0
2	53071	89.81	0
2	53130	89.91	0
2	53192	90.01	0
2	53251	90.11	0
2	53310	90.21	0
2	53369	90.31	0
2	53428	90.41	0
2	53487	90.51	0
2	53546	90.61	0
2	53605	90.71	0
2	53664	90.81	0
2	53723	90.91	0
2	53785	91.01	0
2	53844	91.11	0
2	53903	91.21	0
2	53962	91.31	0
2	54021	91.41	0
2	54080	91.51	0
2	54139	91.61	0
2	54198	91.71	0
2	54257	91.81	0
2	54316	91.91	0
2	54378	92.01	0
2	54437	92.11	0
2	54496	92.21	0
2	54555	92.31	0
2	54614	92.41	0
2	54673	92.51	0
2	54732	92.61	0
2	54791	92.71	0
2	54850	92.81	0
2	54909	92.91	0
2	54971	93.01	0
2	55030	93.11	0
2	55089	93.21	0
2	55148	93.31	0
2	55207	93.41	0
2	55266	93.51	0
2	55325	93.61	0
2	55384	93.71	0
2	55443	93.81	0
2	55502	93.91	0
2	55564	94.01	0
2	55623	94.11	0
2	55682	94.21	0
2	55741	94.31	0
2	55800	94.41	0
2	55859	94.51	0
2	55918	94.61	0
2	55977	94.71	0
2	56036	94.81	0
2	56095	94.91	0
2	56157	95.01	0
2	56216	95.11	0
2	56275	95.21	0
2	56334	95.31	0
2	56393	95.41	0
2	56452	95.51	0
2	56511	95.61	0
2	56570	95.71	0
2	56629	95.81	0
2	56688	95.91	0
2	56750	96.01	0
2	56809	96.11	0
2	56868	96.21	0
2	56927	96.31	0
2	56986	96.41	0
2	57045	96.51	0
2	57104	96.61	0
2	57163	96.71	0
2	57222	96.81	0
2	57281	96.91	0
2	57343	97.01	0
2	57402	97.11	0
2	57461	97.21	0
2	57520	97.31	0
2	57579	97.41	0
2	57638	97.51	0
2	57697	97.61	0
2	57756	97.71	0
2	57815	97.81	0
2	57874	97.91	0
2	57936	98.01	0
2	57995	98.11	0
2	58054	98.21	0
2	58113	98.31	0
2	58172	98.41	0
2	58231	98.51	0
2	58290	98.61	0
2	58349	98.71	0
2	58408	98.81	0
2	58467	98.91	0
2	58529	99.01	0
2	58588	99.11	0
2	58647	99.21	0
2	58706	99.31	0
2	58765	99.41	0
2	58824	99.51	0
2	58883	99.61	0
2	58942	99.71	0
2	59001	99.81	0
2	59060	99.91	0
3	113	1.11	0.000179096
3	172	1.21	0.000340852
3	231	1.31	0.000467435
3	290	1.41	0.000562893
3	349	1.51	0.000631106
3	408	1.61	0.000675745
3	467	1.71	0.000700245
3	526	1.81	0.000707784
3	585	1.91	0.000701273
3	647	2.01	0.000683354
3	706	2.11	0.000656398
3	765	2.21	0.000622512
3	824	2.31	0.000583548
3	883	2.41	0.000541117
3	942	2.51	0.000496604
3	1001	2.61	0.000451181
3	1060	2.71	0.000405825
3	1119	2.81	0.00036134
3	1178	2.91	0.000318365
3	1240	3.01	0.0002774
3	1299	3.11	0.00023882
3	1358	3.21	0.000202887
3	1417	3.31	0.00016977
3	1476	3.41	0.000139558
3	1535	3.51	0.000112271
3	1594	3.61	8.78717e-05
3	1653	3.71	6.628e-05
3	1712	3.81	4.73785e-05
3	1771	3.91	3.1023e-05
3	1833	4.01	1.70493e-05
3	1892	4.11	5.28023e-06
3	1951	4.21	-4.46922e-06
3	2010	4.31	-1.2387e-05
3	2069	4.41	-1.86602e-05
3	2128	4.51	-2.34717e-05
3	2187	4.61	-2.69978e-05
3	2246	4.71	-2.94062e-05
3	2305	4.81	-3.08545e-05
3	2364	4.91	-3.14892e-05
3	2426	5.01	-3.14451e-05
3	2485	5.11	-3.0845e-05
3	2544	5.21	-2.97994e-05
3	2603	5.31	-2.84072e-05
3	2662	5.41	-2.67556e-05
3	2721	5.51	-2.49208e-05
3	2780	5.61	-2.29687e-05
3	2839	5.71	-2.09553e-05
3	2898	5.81	-1.89277e-05
3	2957	5.91	-1.6925e-05
3	3019	6.01	-1.49784e-05
3	3078	6.11	-1.31129e-05
3	3137	6.21	-1.13474e-05
3	3196	6.31	-9.69553e-06
3	3255	6.41	-8.16651e-06
3	3314	6.51	-6.76571e-06
3	3373	6.61	-5.49522e-06
3	3432	6.71	-4.35441e-06
3	3491	6.81	-3.34045e-06
3	3550	6.91	-2.44874e-06
3	3612	7.01	-1.6733e-06
3	3671	7.11	-1.00716e-06
3	3730	7.21	-4.42628e-07
3	3789	7.31	2.84224e-08
3	3848	7.41	4.14339e-07
3	3907	7.51	7.23492e-07
3	3966	7.61	9.6413e-07
3	4025	7.71	1.14424e-06
3	4084	7.81	1.27148e-06
3	4143	7.91	1.35305e-06
3	4205	8.01	1.3957e-06
3	4264	8.11	1.40565e-06
3	4323	8.21	1.3886e-06
3	4382	8.31	1.34971e-06
3	4441	8.41	1.2936e-06
3	4500	8.51	1.22437e-06
3	4559	8.61	1.14561e-06
3	4618	8.71	1.06046e-06
3	4677	8.81	9.71582e-07
3	4736	8.91	8.81246e-07
3	4798	9.01	7.91334e-07
3	4857	9.11	7.03381e-07
3	4916	9.21	6.18613e-07
3	4975	9.31	5.37979e-07
3	5034	9.41	4.62183e-07
3	5093	9.51	3.91714e-07
3	5152	9.61	3.26878e-07
3	5211	9.71	2.67827e-07
3	5270	9.81	2.14581e-07
3	5329	9.91	1.67052e-07
3	5422	10.01	1.25066e-07
3	5482	10.11	8.83794e-08
3	5542	10.21	5.66978e-08
3	5602	10.31	2.96922e-08
3	5662	10.41	7.00453e-09
3	5722	10.51	-1.17325e-08
3	5782	10.61	-2.68933e-08
3	5842	10.71	-3.88482e-08
3	5902	10.81	-4.79581e-08
3	5962	10.91	-5.45704e-08
3	6025	11.01	-5.90177e-08
3	6085	11.11	-6.16069e-08
3	6145	11.21	-6.26265e-08
3	6205	11.31	-6.23395e-08
3	6265	11.41	-6.09859e-08
3	6325	11.51	-5.87811e-08
3	6385	11.61	-5.59183e-08
3	6445	11.71	-5.25674e-08
3	6505	11.81	-4.88761e-08
3	6565	11.91	-4.4971e-08
3	6628	12.01	-4.09599e-08
3	6688	12.11	-3.69354e-08
3	6748	12.21	-3.29713e-08
3	6808	12.31	-2.9128e-08
3	6868	12.41	-2.54531e-08
3	6928	12.51	-2.19821e-08
3	6988	12.61	-1.87399e-08
3	7048	12.71	-1.57428e-08
3	7108	12.81	-1.30029e-08
3	7168	12.91	-1.05217e-08
3	7231	13.01	-8.29772e-09
3	7291	13.11	-6.32454e-09
3	7351	13.21	-4.59224e-09
3	7411	13.31	-3.08802e-09
3	7471	13.41	-1.79838e-09
3	7531	13.51	-7.08411e-10
3	7591	13.61	1.98241e-10
3	7651	13.71	9.37916e-10
3	7711	13.81	1.52767e-09
3	7771	13.91	1.98384e-09
3	7834	14.01	2.32276e-09
3	7894	14.11	2.55937e-09
3	7954	14.21	2.70788e-09
3	8014	14.31	2.78249e-09
3	8074	14.41	2.79243e-09
3	8134	14.51	2.7498e-09
3	8194	14.61	2.66525e-09
3	8254	14.71	2.54872e-09
3	8314	14.81	2.40803e-09
3	8374	14.91	2.24887e-09
3	8437	15.01	2.07763e-09
3	8497	15.11	1.89999e-09
3	8557	15.21	1.72236e-09
3	8617	15.31	1.54472e-09
3	8677	15.41	1.37064e-09
3	8737	15.51	1.20295e-09
3	8797	15.61	1.04379e-09
3	8857	15.71	8.94573e-10
3	8917	15.81	7.56017e-10
3	8977	15.91	6.29541e-10
3	9040	16.01	5.13012e-10
3	9100	16.11	4.09273e-10
3	9160	16.21	3.16902e-10
3	9220	16.31	2.3519e-10
3	9280	16.41	1.63425e-10
3	9340	16.51	1.02318e-10
3	9400	16.61	4.9738e-11
3	9460	16.71	5.68434e-12
3	9520	16.81	-3.05533e-11
3	9580	16.91	-5.8975e-11
3	9643	17.01	-8.10019e-11
3	9703	17.11	-9.80549e-11
3	9763	17.21	-1.11555e-10
3	9823	17.31	-1.18661e-10
3	9883	17.41	-1.23634e-10
3	9943	17.51	-1.23634e-10
3	10003	17.61	-1.23634e-10
3	10063	17.71	-1.21503e-10
3	10123	17.81	-1.14397e-10
3	10183	17.91	-1.07292e-10
3	10246	18.01	-1.00187e-10
3	10306	18.11	-9.30811e-11
3	10366	18.21	-8.59757e-11
3	10426	18.31	-7.88702e-11
3	10486	18.41	-7.17648e-11
3	10546	18.51	-6.46594e-11
3	10606	18.61	-5.7554e-11
3	10666	18.71	-5.04485e-11
3	10726	18.81	-4.33431e-11
3	10786	18.91	-3.62377e-11
3	10849	19.01	-2.91323e-11
3	10909	19.11	-2.20268e-11
3	10969	19.21	-1.7053e-11
3	11029	19.31	-1.49214e-11
3	11089	19.41	-1.35003e-11
3	11149	19.51	-1.27898e-11
3	11209	19.61	-1.13687e-11
3	11269	19.71	-9.9476e-12
3	11329	19.81	-9.23706e-12
3	11389	19.91	-8.52651e-12
3	11452	20.01	-7.81597e-12
3	11512	20.11	-7.10543e-12
3	11572	20.21	-6.39488e-12
3	11632	20.31	-5.68434e-12
3	11692	20.41	-4.9738e-12
3	11752	20.51	-4.26326e-12
3	11812	20.61	-4.26326e-12
3	11872	20.71	-3.55271e-12
3	11932	20.81	-3.55271e-12
3	11992	20.91	-2.84217e-12
3	12055	21.01	-2.84217e-12
3	12115	21.11	-2.84217e-12
3	12175	21.21	-2.13163e-12
3	12235	21.31	-2.13163e-12
3	12295	21.41	-2.13163e-12
3	12355	21.51	-1.42109e-12
3	12415	21.61	-1.42109e-12
3	12475	21.71	-1.42109e-12
3	12535	21.81	-1.42109e-12
3	12595	21.91	-1.42109e-12
3	12658	22.01	-7.10543e-13
3	12718	22.11	-7.10543e-13
3	12778	22.21	-7.10543e-13
3	12838	22.31	-7.10543e-13
3	12898	22.41	-7.10543e-13
3	12958	22.51	-7.10543e-13
3	13018	22.61	-7.10543e-13
3	13078	22.71	-7.10543e-13
3	13138	22.81	-7.10543e-13
3	13198	22.91	-7.10543e-13
3	13261	23.01	0
3	13321	23.11	0
3	13381	23.21	0
3	13441	23.31	0
3	13501	23.41	0
3	13561	23.51	0
3	13621	23.61	0
3	13681	23.71	0
3	13741	23.81	0
3	13801	23.91	0
3	13864	24.01	0
3	13924	24.11	0
3	13984	24.21	0
3	14044	24.31	0
3	14104	24.41	0
3	14164	24.51	0
3	14224	24.61	0
3	14284	24.71	0
3	14344	24.81	0
3	14404	24.91	0
3	14467	25.01	0
3	14527	25.11	0
3	14587	25.21	0
3	14647	25.31	0
3	14707	25.41	0
3	14767	25.51	0
3	14827	25.61	0
3	14887	25.71	0
3	14947	25.81	0
3	15007	25.91	0
3	15070	26.01	0
3	15130	26.11	0
3	15190	26.21	0
3	15250	26.31	0
3	15310	26.41	0
3	15370	26.51	0
3	15430	26.61	0
3	15490	26.71	0
3	15550	26.81	0
3	15610	26.91	0
3	15673	27.01	0
3	15733	27.11	0
3	15793	27.21	0
3	15853	27.31	0
3	15913	27.41	0
3	15973	27.51	0
3	16033	27.61	0
3	16093	27.71	0
3	16153	27.81	0
3	16213	27.91	0
3	16276	28.01	0
3	16336	28.11	0
3	16396	28.21	0
3	16456	28.31	0
3	16516	28.41	0
3	16576	28.51	0
3	16636	28.61	0
3	16696	28.71	0
3	16756	28.81	0
3	16816	28.91	0
3	16879	29.01	0
3	16939	29.11	0
3	16999	29.21	0
3	17059	29.31	0
3	17119	29.41	0
3	17179	29.51	0
3	17239	29.61	0
3	17299	29.71	0
3	17359	29.81	0
3	17419	29.91	0
3	17482	30.01	0
3	17542	30.11	0
3	17602	30.21	0
3	17662	30.31	0
3	17722	30.41	0
3	17782	30.51	0
3	17842	30.61	0
3	17902	30.71	0
3	17962	30.81	0
3	18022	30.91	0
3	18085	31.01	0
3	18145	31.11	0
3	18205	31.21	0
3	18265	31.31	0
3	18325	31.41	0
3	18385	31.51	0
3	18445	31.61	0
3	18505	31.71	0
3	18565	31.81	0
3	18625	31.91	0
3	18688	32.01	0
3	18748	32.11	0
3	18808	32.21	0
3	18868	32.31	0
3	18928	32.41	0
3	18988	32.51	0
3	19048	32.61	0
3	19108	32.71	0
3	19168	32.81	0
3	19228	32.91	0
3	19291	33.01	0
3	19351	33.11	0
3	19411	33.21	0
3	19471	33.31	0
3	19531	33.41	0
3	19591	33.51	0
3	19651	33.61	0
3	19711	33.71	0
3	19771	33.81	0
3	19831	33.91	0
3	19894	34.01	0
3	19954	34.11	0
3	20014	34.21	0
3	20074	34.31	0
3	20134	34.41	0
3	20194	34.51	0
3	20254	34.61	0
3	20314	34.71	0
3	20374	34.81	0
3	20434	34.91	0
3	20497	35.01	0
3	20557	35.11	0
3	20617	35.21	0
3	20677	35.31	0
3	20737	35.41	0
3	20797	35.51	0
3	20857	35.61	0
3	20917	35.71	0
3	20977	35.81	0
3	21037	35.91	0
3	21100	36.01	0
3	21160	36.11	0
3	21220	36.21	0
3	21280	36.31	0
3	21406	36.41	0
3	21465	36.51	0
3	21524	36.61	0
3	21583	36.71	0
3	21642	36.81	0
3	21701	36.91	0
3	21763	37.01	0
3	21822	37.11	0
3	21881	37.21	0
3	21940	37.31	0
3	21999	37.41	0
3	22058	37.51	0
3	22117	37.61	0
3	22176	37.71	0
3	22235	37.81	0
3	22294	37.91	0
3	22356	38.01	0
3	22415	38.11	0
3	22474	38.21	0
3	22533	38.31	0
3	22592	38.41	0
3	22651	38.51	0
3	22710	38.61	0
3	22769	38.71	0
3	22828	38.81	0
3	22887	38.91	0
3	22949	39.01	0
3	23008	39.11	0
3	23067	39.21	0
3	23126	39.31	0
3	23185	39.41	0
3	23244	39.51	0
3	23303	39.61	0
3	23362	39.71	0
3	23421	39.81	0
3	23480	39.91	0
3	23542	40.01	0
3	23601	40.11	0
3	23660	40.21	0
3	23719	40.31	0
3	23778	40.41	0
3	23837	40.51	0
3	23896	40.61	0
3	23955	40.71	0
3	24014	40.81	0
3	24073	40.91	0
3	24135	41.01	0
3	24194	41.11	0
3	24253	41.21	0
3	24312	41.31	0
3	24371	41.41	0
3	24430	41.51	0
3	24489	41.61	0
3	24548	41.71	0
3	24607	41.81	0
3	24666	41.91	0
3	24728	42.01	0
3	24787	42.11	0
3	24846	42.21	0
3	24905	42.31	0
3	24964	42.41	0
3	25023	42.51	0
3	25082	42.61	0
3	25141	42.71	0
3	25200	42.81	0
3	25259	42.91	0
3	25321	43.01	0
3	25380	43.11	0
3	25439	43.21	0
3	25498	43.31	0
3	25557	43.41	0
3	25616	43.51	0
3	25675	43.61	0
3	25734	43.71	0
3	25793	43.81	0
3	25852	43.91	0
3	25914	44.01	0
3	25973	44.11	0
3	26032	44.21	0
3	26091	44.31	0
3	26150	44.41	0
3	26209	44.51	0
3	26268	44.61	0
3	26327	44.71	0
3	26386	44.81	0
3	26445	44.91	0
3	26507	45.01	0
3	26566	45.11	0
3	26625	45.21	0
3	26684	45.31	0
3	26743	45.41	0
3	26802	45.51	0
3	26861	45.61	0
3	26920	45.71	0
3	26979	45.81	0
3	27038	45.91	0
3	27100	46.01	0
3	27159	46.11	0
3	27218	46.21	0
3	27277	46.31	0
3	27336	46.41	0
3	27395	46.51	0
3	27454	46.61	0
3	27513	46.71	0
3	27572	46.81	0
3	27631	46.91	0
3	27693	47.01	0
3	27752	47.11	0
3	27811	47.21	0
3	27870	47.31	0
3	27929	47.41	0
3	27988	47.51	0
3	28047	47.61	0
3	28106	47.71	0
3	28165	47.81	0
3	28224	47.91	0
3	28286	48.01	0
3	28345	48.11	0
3	28404	48.21	0
3	28463	48.31	0
3	28522	48.41	0
3	28581	48.51	0
3	28640	48.61	0
3	28699	48.71	0
3	28758	48.81	0
3	28817	48.91	0
3	28879	49.01	0
3	28938	49.11	0
3	28997	49.21	0
3	29056	49.31	0
3	29115	49.41	0
3	29174	49.51	0
3	29233	49.61	0
3	29292	49.71	0
3	29351	49.81	0
3	29410	49.91	0
3	29472	50.01	0
3	29531	50.11	0
3	29590	50.21	0
3	29649	50.31	0
3	29708	50.41	0
3	29767	50.51	0
3	29826	50.61	0
3	29885	50.71	0
3	29944	50.81	0
3	30003	50.91	0
3	30065	51.01	0
3	30124	51.11	0
3	30183	51.21	0
3	30242	51.31	0
3	30301	51.41	0
3	30360	51.51	0
3	30419	51.61	0
3	30478	51.71	0
3	30537	51.81	0
3	30596	51.91	0
3	30658	52.01	0
3	30717	52.11	0
3	30776	52.21	0
3	30835	52.31	0
3	30894	52.41	0
3	30953	52.51	0
3	31012	52.61	0
3	31071	52.71	0
3	31130	52.81	0
3	31189	52.91	0
3	31251	53.01	0
3	31310	53.11	0
3	31369	53.21	0
3	31428	53.31	0
3	31487	53.41	0
3	31546	53.51	0
3	31605	53.61	0
3	31664	53.71	0
3	31723	53.81	0
3	31782	53.91	0
3	31844	54.01	0
3	31903	54.11	0
3	31962	54.21	0
3	32021	54.31	0
3	32080	54.41	0
3	32139	54.51	0
3	32198	54.61	0
3	32257	54.71	0
3	32316	54.81	0
3	32375	54.91	0
3	32437	55.01	0
3	32496	55.11	0
3	32555	55.21	0
3	32614	55.31	0
3	32673	55.41	0
3	32732	55.51	0
3	32791	55.61	0
3	32850	55.71	0
3	32909	55.81	0
3	32968	55.91	0
3	33030	56.01	0
3	33089	56.11	0
3	33148	56.21	0
3	33207	56.31	0
3	33266	56.41	0
3	33325	56.51	0
3	33384	56.61	0
3	33443	56.71	0
3	33502	56.81	0
3	33561	56.91	0
3	33623	57.01	0
3	33682	57.11	0
3	33741	57.21	0
3	33800	57.31	0
3	33859	57.41	0
3	33918	57.51	0
3	33977	57.61	0
3	34036	57.71	0
3	34095	57.81	0
3	34154	57.91	0
3	34216	58.01	0
3	34275	58.11	0
3	34334	58.21	0
3	34393	58.31	0
3	34452	58.41	0
3	34511	58.51	0
3	34570	58.61	0
3	34629	58.71	0
3	34688	58.81	0
3	34747	58.91	0
3	34809	59.01	0
3	34868	59.11	0
3	34927	59.21	0
3	34986	59.31	0
3	35045	59.41	0
3	35104	59.51	0
3	35163	59.61	0
3	35222	59.71	0
3	35281	59.81	0
3	35340	59.91	0
3	35402	60.01	0
3	35461	60.11	0
3	35520	60.21	0
3	35579	60.31	0
3	35638	60.41	0
3	35697	60.51	0
3	35756	60.61	0
3	35815	60.71	0
3	35874	60.81	0
3	35933	60.91	0
3	35995	61.01	0
3	36054	61.11	0
3	36113	61.21	0
3	36172	61.31	0
3	36231	61.41	0
3	36290	61.51	0
3	36349	61.61	0
3	36408	61.71	0
3	36467	61.81	0
3	36526	61.91	0
3	36588	62.01	0
3	36647	62.11	0
3	36706	62.21	0
3	36765	62.31	0
3	36824	62.41	0
3	36883	62.51	0
3	36942	62.61	0
3	37001	62.71	0
3	37060	62.81	0
3	37119	62.91	0
3	37181	63.01	0
3	37240	63.11	0
3	37299	63.21	0
3	37358	63.31	0
3	37417	63.41	0
3	37476	63.51	0
3	37535	63.61	0
3	37594	63.71	0
3	37653	63.81	0
3	37712	63.91	0
3	37774	64.01	0
3	37833	64.11	0
3	37892	64.21	0
3	37951	64.31	0
3	38010	64.41	0
3	38069	64.51	0
3	38128	64.61	0
3	38187	64.71	0
3	38246	64.81	0
3	38305	64.91	0
3	38367	65.01	0
3	38426	65.11	0
3	38485	65.21	0
3	38544	65.31	0
3	38603	65.41	0
3	38662	65.51	0
3	38721	65.61	0
3	38780	65.71	0
3	38839	65.81	0
3	38898	65.91	0
3	38960	66.01	0
3	39019	66.11	0
3	39078	66.21	0
3	39137	66.31	0
3	39196	66.41	0
3	39255	66.51	0
3	39314	66.61	0
3	39373	66.71	0
3	39432	66.81	0
3	39491	66.91	0
3	39553	67.01	0
3	39612	67.11	0
3	39671	67.21	0
3	39730	67.31	0
3	39789	67.41	0
3	39848	67.51	0
3	39907	67.61	0
3	39966	67.71	0
3	40025	67.81	0
3	40084	67.91	0
3	40146	68.01	0
3	40205	68.11	0
3	40264	68.21	0
3	40323	68.31	0
3	40382	68.41	0
3	40441	68.51	0
3	40500	68.61	0
3	40559	68.71	0
3	40618	68.81	0
3	40677	68.91	0
3	40739	69.01	0
3	40798	69.11	0
3	40857	69.21	0
3	40916	69.31	0
3	40975	69.41	0
3	41034	69.51	0
3	41093	69.61	0
3	41152	69.71	0
3	41211	69.81	0
3	41270	69.91	0
3	41332	70.01	0
3	41391	70.11	0
3	41450	70.21	0
3	41509	70.31	0
3	41568	70.41	0
3	41627	70.51	0
3	41686	70.61	0
3	41745	70.71	0
3	41804	70.81	0
3	41863	70.91	0
3	41925	71.01	0
3	41984	71.11	0
3	42043	71.21	0
3	42102	71.31	0
3	42161	71.41	0
3	42220	71.51	0
3	42279	71.61	0
3	42338	71.71	0
3	42397	71.81	0
3	42456	71.91	0
3	42518	72.01	0
3	42577	72.11	0
3	42636	72.21	0
3	42695	72.31	0
3	42754	72.41	0
3	42813	72.51	0
3	42872	72.61	0
3	42931	72.71	0
3	42990	72.81	0
3	43049	72.91	0
3	43111	73.01	0
3	43170	73.11	0
3	43229	73.21	0
3	43288	73.31	0
3	43347	73.41	0
3	43406	73.51	0
3	43465	73.61	0
3	43524	73.71	0
3	43583	73.81	0
3	43642	73.91	0
3	43704	74.01	0
3	43763	74.11	0
3	43822	74.21	0
3	43881	74.31	0
3	43940	74.41	0
3	43999	74.51	0
3	44058	74.61	0
3	44117	74.71	0
3	44176	74.81	0
3	44235	74.91	0
3	44297	75.01	0
3	44356	75.11	0
3	44415	75.21	0
3	44474	75.31	0
3	44533	75.41	0
3	44592	75.51	0
3	44651	75.61	0
3	44710	75.71	0
3	44769	75.81	0
3	44828	75.91	0
3	44890	76.01	0
3	44949	76.11	0
3	45008	76.21	0
3	45067	76.31	0
3	45126	76.41	0
3	45185	76.51	0
3	45244	76.61	0
3	45303	76.71	0
3	45362	76.81	0
3	45421	76.91	0
3	45483	77.01	0
3	45542	77.11	0
3	45601	77.21	0
3	45660	77.31	0
3	45719	77.41	0
3	45778	77.51	0
3	45837	77.61	0
3	45896	77.71	0
3	45955	77.81	0
3	46014	77.91	0
3	46076	78.01	0
3	46135	78.11	0
3	46194	78.21	0
3	46253	78.31	0
3	46312	78.41	0
3	46371	78.51	0
3	46430	78.61	0
3	46489	78.71	0
3	46548	78.81	0
3	46607	78.91	0
3	46669	79.01	0
3	46728	79.11	0
3	46787	79.21	0
3	46846	79.31	0
3	46905	79.41	0
3	46964	79.51	0
3	47023	79.61	0
3	47082	79.71	0
3	47141	79.81	0
3	47200	79.91	0
3	47262	80.01	0
3	47321	80.11	0
3	47380	80.21	0
3	47439	80.31	0
3	47498	80.41	0
3	47557	80.51	0
3	47616	80.61	0
3	47675	80.71	0
3	47734	80.81	0
3	47793	80.91	0
3	47855	81.01	0
3	47914	81.11	0
3	47973	81.21	0
3	48032	81.31	0
3	48091	81.41	0
3	48150	81.51	0
3	48209	81.61	0
3	48268	81.71	0
3	48327	81.81	0
3	48386	81.91	0
3	48448	82.01	0
3	48507	82.11	0
3	48566	82.21	0
3	48625	82.31	0
3	48684	82.41	0
3	48743	82.51	0
3	48802	82.61	0
3	48861	82.71	0
3	48920	82.81	0
3	48979	82.91	0
3	49041	83.01	0
3	49100	83.11	0
3	49159	83.21	0
3	49218	83.31	0
3	49277	83.41	0
3	49336	83.51	0
3	49395	83.61	0
3	49454	83.71	0
3	49513	83.81	0
3	49572	83.91	0
3	49634	84.01	0
3	49693	84.11	0
3	49752	84.21	0
3	49811	84.31	0
3	49870	84.41	0
3	49929	84.51	0
3	49988	84.61	0
3	50047	84.71	0
3	50106	84.81	0
3	50165	84.91	0
3	50227	85.01	0
3	50286	85.11	0
3	50345	85.21	0
3	50404	85.31	0
3	50463	85.41	0
3	50522	85.51	0
3	50581	85.61	0
3	50640	85.71	0
3	50699	85.81	0
3	50758	85.91	0
3	50820	86.01	0
3	50879	86.11	0
3	50938	86.21	0
3	50997	86.31	0
3	51056	86.41	0
3	51115	86.51	0
3	51174	86.61	0
3	51233	86.71	0
3	51292	86.81	0
3	51351	86.91	0
3	51413	87.01	0
3	51472	87.11	0
3	51531	87.21	0
3	51590	87.31	0
3	51649	87.41	0
3	51708	87.51	0
3	51767	87.61	0
3	51826	87.71	0
3	51885	87.81	0
3	51944	87.91	0
3	52006	88.01	0
3	52065	88.11	0
3	52124	88.21	0
3	52183	88.31	0
3	52242	88.41	0
3	52301	88.51	0
3	52360	88.61	-0.0365202
3	52419	88.71	-0.0868471
3	52478	88.81	-0.125338
3	52537	88.91	-0.153459
3	52599	89.01	-0.172582
3	52658	89.11	-0.183978
3	52717	89.21	-0.188818
3	52776	89.31	-0.188171
3	52835	89.41	-0.183005
3	52894	89.51	-0.174191
3	52953	89.61	-0.162505
3	53012	89.71	-0.148634
3	53071	89.81	-0.133179
3	53130	89.91	-0.116663
3	53192	90.01	-0.0995337
3	53251	90.11	-0.0821722
3	53310	90.21	-0.0648974
3	53369	90.31	-0.0479719
3	53428	90.41	-0.0316081
3	53487	90.51	-0.0159729
3	53546	90.61	-0.00119383
3	53605	90.71	0.0126368
3	53664	90.81	0.0254569
3	53723	90.91	0.0372306
3	53785	91.01	0.0479439
3	53844	91.11	0.0576017
3	53903	91.21	0.0662239
3	53962	91.31	0.073843
3	54021	91.41	0.0805011
3	54080	91.51	0.0862479
3	54139	91.61	0.0911384
3	54198	91.71	0.0952312
3	54257	91.81	0.0985873
3	54316	91.91	0.101268
3	54378	92.01	0.103336
3	54437	92.11	0.10485
3	54496	92.21	0.105869
3	54555	92.31	0.106449
3	54614	92.41	0.1066
3	54673	92.51	0.105275
3	54732	92.61	0.1023
3	54791	92.71	0.098024
3	54850	92.81	0.0927584
3	54909	92.91	0.086775
3	54971	93.01	0.0803102
3	55030	93.11	0.0735664
3	55089	93.21	0.0667146
3	55148	93.31	0.0598972
3	55207	93.41	0.0532302
3	55266	93.51	0.0468062
3	55325	93.61	0.0406968
3	55384	93.71	0.0349551
3	55443	93.81	0.0296179
3	55502	93.91	0.0247083
3	55564	94.01	0.0202376
3	55623	94.11	0.016207
3	55682	94.21	0.0126099
3	55741	94.31	0.00943282
3	55800	94.41	0.00665733
3	55859	94.51	0.00426106
3	55918	94.61	0.00221885
3	55977	94.71	0.000503738
3	56036	94.81	-0.000912289
3	56095	94.91	-0.00205756
3	56157	95.01	-0.00296018
3	56216	95.11	-0.00364755
3	56275	95.21	-0.00414601
3	56334	95.31	-0.00448056
3	56393	95.41	-0.00467464
3	56452	95.51	-0.00475001
3	56511	95.61	-0.00472665
3	56570	95.71	-0.0046227
3	56629	95.81	-0.00445452
3	56688	95.91	-0.00423666
3	56750	96.01	-0.00398195
3	56809	96.11	-0.00370157
3	56868	96.21	-0.00340518
3	56927	96.31	-0.00310096
3	56986	96.41	-0.00279577
3	57045	96.51	-0.00249527
3	57104	96.61	-0.002204
3	57163	96.71	-0.00192552
3	57222	96.81	-0.00166254
3	57281	96.91	-0.00141699
3	57343	97.01	-0.00119013
3	57402	97.11	-0.000982682
3	57461	97.21	-0.000794877
3	57520	97.31	-0.000626556
3	57579	97.41	-0.000477235
3	57638	97.51	-0.000346181
3	57697	97.61	-0.000232462
3	57756	97.71	-0.000135003
3	57815	97.81	-5.26315e-05
3	57874	97.91	1.58859e-05
3	57936	98.01	7.1809e-05
3	57995	98.11	0.000116398
3	58054	98.21	0.000150888
3	58113	98.31	0.000176476
3	58172	98.41	0.000194302
3	58231	98.51	0.00020544
3	58290	98.61	0.000210892
3	58349	98.71	0.000211583
3	58408	98.81	0.000208354
3	58467	98.91	0.000201969
3	58529	99.01	0.000193108
3	58588	99.11	0.000182376
3	58647	99.21	0.0001703
3	58706	99.31	0.000157339
3	58765	99.41	0.000143885
3	58824	99.51	0.000130267
3	58883	99.61	0.00011676
3	58942	99.71	0.000103584
3	59001	99.81	9.09181e-05
3	59060	99.91	7.88967e-05
4	113	1.11	0.00109259
4	172	1.21	0.00106709
4	231	1.31	0.00102704
4	290	1.41	0.000975759
4	349	1.51	0.00091619
4	408	1.61	0.000850891
4	467	1.71	0.000782061
4	526	1.81	0.00071157
4	585	1.91	0.00064098
4	647	2.01	0.000571575
4	706	2.11	0.000504387
4	765	2.21	0.000440223
4	824	2.31	0.000379691
4	883	2.41	0.000323223
4	942	2.51	0.000271102
4	1001	2.61	0.000223482
4	1060	2.71	0.000180409
4	1119	2.81	0.000141839
4	1178	2.91	0.000107653
4	1240	3.01	7.76787e-05
4	1299	3.11	5.16957e-05
4	1358	3.21	2.94534e-05
4	1417	3.31	1.06787e-05
4	1476	3.41	-4.91459e-06
4	1535	3.51	-1.76184e-05
4	1594	3.61	-2.7724e-05
4	1653	3.71	-3.55168e-05
4	1712	3.81	-4.12726e-05
4	1771	3.91	-4.52541e-05
4	1833	4.01	-4.77086e-05
4	1892	4.11	-4.88665e-05
4	1951	4.21	-4.89399e-05
4	2010	4.31	-4.81224e-05
4	2069	4.41	-4.65886e-05
4	2128	4.51	-4.44947e-05
4	2187	4.61	-4.1979e-05
4	2246	4.71	-3.91623e-05
4	2305	4.81	-3.61492e-05
4	2364	4.91	-3.3029e-05
4	2426	5.01	-2.9877e-05
4	2485	5.11	-2.67554e-05
4	2544	5.21	-2.37147e-05
4	2603	5.31	-2.07949e-05
4	2662	5.41	-1.80267e-05
4	2721	5.51	-1.54325e-05
4	2780	5.61	-1.30275e-05
4	2839	5.71	-1.0821e-05
4	2898	5.81	-8.81673e-06
4	2957	5.91	-7.01443e-06
4	3019	6.01	-5.4101e-06
4	3078	6.11	-3.99696e-06
4	3137	6.21	-2.766e-06
4	3196	6.31	-1.70658e-06
4	3255	6.41	-8.06872e-07
4	3314	6.51	-5.43281e-08
4	3373	6.61	5.63994e-07
4	3432	6.71	1.06112e-06
4	3491	6.81	1.4499e-06
4	3550	6.91	1.74283e-06
4	3612	7.01	1.95188e-06
4	3671	7.11	2.08836e-06
4	3730	7.21	2.16287e-06
4	3789	7.31	2.1852e-06
4	3848	7.41	2.16432e-06
4	3907	7.51	2.10838e-06
4	3966	7.61	2.02467e-06
4	4025	7.71	1.91968e-06
4	4084	7.81	1.79913e-06
4	4143	7.91	1.66796e-06
4	4205	8.01	1.53044e-06
4	4264	8.11	1.39018e-06
4	4323	8.21	1.25018e-06
4	4382	8.31	1.11291e-06
4	4441	8.41	9.80339e-07
4	4500	8.51	8.54002e-07
4	4559	8.61	7.35044e-07
4	4618	8.71	6.24274e-07
4	4677	8.81	5.22206e-07
4	4736	8.91	4.2911e-07
4	4798	9.01	3.45041e-07
4	4857	9.11	2.69888e-07
4	4916	9.21	2.03394e-07
4	4975	9.31	1.45199e-07
4	5034	9.41	9.48539e-08
4	5093	9.51	5.18526e-08
4	5152	9.61	1.56462e-08
4	5211	9.71	-1.43366e-08
4	5270	9.81	-3.86756e-08
4	5329	9.91	-5.79483e-08
4	5422	10.01	-7.27191e-08
4	5482	10.11	-8.35328e-08
4	5542	10.21	-9.09047e-08
4	5602	10.31	-9.53222e-08
4	5662	10.41	-9.72364e-08
4	5722	10.51	-9.7063e-08
4	5782	10.61	-9.51793e-08
4	5842	10.71	-9.19272e-08
4	5902	10.81	-8.76099e-08
4	5962	10.91	-8.24976e-08
4	6025	11.01	-7.68239e-08
4	6085	11.11	-7.07914e-08
4	6145	11.21	-6.45734e-08
4	6205	11.31	-5.83135e-08
4	6265	11.41	-5.21325e-08
4	6325	11.51	-4.6127e-08
4	6385	11.61	-4.0373e-08
4	6445	11.71	-3.49289e-08
4	6505	11.81	-2.98357e-08
4	6565	11.91	-2.51227e-08
4	6628	12.01	-2.08054e-08
4	6688	12.11	-1.6891e-08
4	6748	12.21	-1.33767e-08
4	6808	12.31	-1.02538e-08
4	6868	12.41	-7.50759e-09
4	6928	12.51	-5.12017e-09
4	6988	12.61	-3.07026e-09
4	7048	12.71	-1.33298e-09
4	7108	12.81	1.15818e-10
4	7168	12.91	1.30242e-09
4	7231	13.01	2.25242e-09
4	7291	13.11	2.99138e-09
4	7351	13.21	3.54419e-09
4	7411	13.31	3.93356e-09
4	7471	13.41	4.18297e-09
4	7531	13.51	4.31157e-09
4	7591	13.61	4.34071e-09
4	7651	13.71	4.28599e-09
4	7711	13.81	4.16449e-09
4	7771	13.91	3.99041e-09
4	7834	14.01	3.77582e-09
4	7894	14.11	3.53211e-09
4	7954	14.21	3.2685e-09
4	8014	14.31	2.99423e-09
4	8074	14.41	2.71498e-09
4	8134	14.51	2.43716e-09
4	8194	14.61	2.16573e-09
4	8254	14.71	1.90425e-09
4	8314	14.81	1.65556e-09
4	8374	14.91	1.4218e-09
4	8437	15.01	1.20437e-09
4	8497	15.11	1.00471e-09
4	8557	15.21	8.22808e-10
4	8617	15.31	6.57963e-10
4	8677	15.41	5.11591e-10
4	8737	15.51	3.82272e-10
4	8797	15.61	2.69296e-10
4	8857	15.71	1.71951e-10
4	8917	15.81	8.88178e-11
4	8977	15.91	1.84741e-11
4	9040	16.01	-3.90799e-11
4	9100	16.11	-8.52651e-11
4	9160	16.21	-1.22213e-10
4	9220	16.31	-1.49925e-10
4	9280	16.41	-1.7053e-10
4	9340	16.51	-1.84031e-10
4	9400	16.61	-1.91847e-10
4	9460	16.71	-1.94689e-10
4	9520	16.81	-1.93268e-10
4	9580	16.91	-1.89004e-10
4	9643	17.01	-1.81899e-10
4	9703	17.11	-1.73372e-10
4	9763	17.21	-1.62714e-10
4	9823	17.31	-1.51346e-10
4	9883	17.41	-1.39266e-10
4	9943	17.51	-1.26477e-10
4	10003	17.61	-1.14397e-10
4	10063	17.71	-1.02318e-10
4	10123	17.81	-9.02389e-11
4	10183	17.91	-7.88702e-11
4	10246	18.01	-6.89226e-11
4	10306	18.11	-5.8975e-11
4	10366	18.21	-4.9738e-11
4	10426	18.31	-4.1922e-11
4	10486	18.41	-3.41061e-11
4	10546	18.51	-2.70006e-11
4	10606	18.61	-2.13163e-11
4	10666	18.71	-1.56319e-11
4	10726	18.81	-1.06581e-11
4	10786	18.91	-7.10543e-12
4	10849	19.01	-3.55271e-12
4	10909	19.11	-7.10543e-13
4	10969	19.21	7.10543e-13
[...]
27	46101	78.062197174696	1
27	46160	78.16219435783	1
27	46219	78.262204541553	1
27	46278	78.362201725864	1
27	46337	78.462198910764	1
27	46396	78.562196096253	1
27	46455	78.662206282331	1
27	46514	78.762203468998	1
27	46573	78.862200656253	1
27	46632	78.962197844098	1
27	46694	79.062195032531	1
27	46753	79.162205221554	1
27	46812	79.262202411165	1
27	46871	79.362199601366	1
27	46930	79.462196792155	1
27	46989	79.562193983534	1
27	47048	79.662204175501	1
27	47107	79.762201368058	1
27	47166	79.862198561204	1
27	47225	79.962195754939	1
27	47287	80.062205949263	1
27	47346	80.162203144176	1
27	47405	80.262200339679	1
27	47464	80.362197535771	1
27	47523	80.462194732452	1
27	47582	80.562204929723	1
27	47641	80.662202127582	1
27	47700	80.762199326031	1
27	47759	80.86219652507	1
27	47818	80.962193724697	1
27	47880	81.062203924914	1
27	47939	81.162201125721	1
27	47998	81.262198327117	1
27	48057	81.362195529102	1
27	48116	81.462205731677	1
27	48175	81.562202934842	1
27	48234	81.662200138596	1
27	48293	81.762197342939	1
27	48352	81.862194547872	1
27	48411	81.962204753395	1
27	48473	82.062201959508	1
27	48532	82.16219916621	1
27	48591	82.262196373501	1
27	48650	82.362193581382	1
27	48709	82.462203789853	1
27	48768	82.562200998914	1
27	48827	82.662198208565	1
27	48886	82.762195418806	1
27	48945	82.862205629636	1
27	49004	82.962202841055	1
27	49066	83.062200053064	1
27	49125	83.162197265663	1
27	49184	83.262194478852	1
27	49243	83.362204692631	1
27	49302	83.462201907	1
27	49361	83.562199121959	1
27	49420	83.662196337508	1
27	49479	83.762193553647	1
27	49538	83.862203770376	1
27	49597	83.962200987695	1
27	49659	84.062198205604	1
27	49718	84.162195424103	1
27	49777	84.262205643192	1
27	49836	84.362202862871	1
27	49895	84.46220008314	1
27	49954	84.562197303999	1
27	50013	84.662194525448	1
27	50072	84.762204747487	1
27	50131	84.862201970116	1
27	50190	84.962199193335	1
27	50252	85.062196417144	1
27	50311	85.162193641543	1
27	50370	85.262203866532	1
27	50429	85.362201092111	1
27	50488	85.46219831828	1
27	50547	85.562195545039	1
27	50606	85.662205772389	1
27	50665	85.76220300033	1
27	50724	85.862200228861	1
27	50783	85.962197457982	1
27	50845	86.062194687693	1
27	50904	86.162204917994	1
27	50963	86.262202148885	1
27	51022	86.362199380367	1
27	51081	86.46219661244	1
27	51140	86.562193845103	1
27	51199	86.662204078356	1
27	51258	86.762201312199	1
27	51317	86.862198546632	1
27	51376	86.962195781657	1
27	51438	87.062206017272	1
27	51497	87.162203253477	1
27	51556	87.262200490272	1
27	51615	87.362197727658	1
27	51674	87.462194965635	1
27	51733	87.562205204202	1
27	51792	87.662202443359	1
27	51851	87.762199683106	1
27	51910	87.862196923445	1
27	51969	87.962194164374	1
27	52031	88.062204405893	1
27	52090	88.162201648003	1
27	52149	88.262198890704	1
27	52208	88.362196133995	1
27	52267	88.462206377876	1
27	52326	88.562203621852	1
27	52385	88.662200865925	1
27	52444	88.762198110595	1
27	52503	88.862195355869	1
27	52562	88.962205601756	1
27	52624	89.062202848267	1
27	52683	89.162200095413	1
27	52742	89.262197343207	1
27	52801	89.362194591661	1
27	52860	89.462204840789	1
27	52919	89.562202090602	1
27	52978	89.662199341111	1
27	53037	89.762196592327	1
27	53096	89.862193844259	1
27	53155	89.962204096916	1
27	53217	90.062201350305	1
27	53276	90.162198604432	1
27	53335	90.262195859302	1
27	53394	90.36220611492	1
27	53453	90.462203371288	1
27	53512	90.562200628408	1
27	53571	90.662197886281	1
27	53630	90.762195144907	1
27	53689	90.862205404284	1
27	53748	90.96220266441	1
27	53810	91.062199925283	1
27	53869	91.162197186899	1
27	53928	91.262194449254	1
27	53987	91.362204712344	1
27	54046	91.462201976164	1
27	54105	91.562199240707	1
27	54164	91.662196505968	1
27	54223	91.762193771941	1
27	54282	91.86220403862	1
27	54341	91.962201305997	1
27	54403	92.062198574067	1
27	54462	92.162195842822	1
27	54521	92.262206112255	1
27	54580	92.362203382359	1
27	54639	92.462200653127	1
27	54698	92.562197924551	1
27	54757	92.662195196625	1
27	54816	92.762205469343	1
27	54875	92.862202742697	1
27	54934	92.962200016682	1
27	54996	93.062197291293	1
27	55055	93.162194566524	1
27	55114	93.26220484237	1
27	55173	93.362202118826	1
27	55232	93.462199395889	1
27	55291	93.562196673556	1
27	55350	93.662193951824	1
27	55409	93.762204230689	1
27	55468	93.86220151015	1
27	55527	93.962198790206	1
27	55589	94.062196070854	1
27	55648	94.162206352093	1
27	55707	94.262203633922	1
27	55766	94.362200916341	1
27	55825	94.462198199348	1
27	55884	94.562195482944	1
27	55943	94.662205767128	1
27	56002	94.7622030519	1
27	56061	94.86220033726	1
27	56120	94.962197623208	1
27	56182	95.062194909745	1
27	56241	95.16220519687	1
27	56300	95.262202484584	1
27	56359	95.362199772887	1
27	56418	95.46219706178	1
27	56477	95.562194351263	1
27	56536	95.662204641336	1
27	56595	95.762201931999	1
27	56654	95.862199223252	1
27	56713	95.962196515096	1
27	56775	96.062193807531	1
27	56834	96.162204100558	1
27	56893	96.262201394177	1
27	56952	96.362198688388	1
27	57011	96.462195983191	1
27	57070	96.562206278586	1
27	57129	96.662203574574	1
27	57188	96.762200871154	1
27	57247	96.862198168327	1
27	57306	96.962195466093	1
27	57368	97.062205764451	1
27	57427	97.162203063403	1
27	57486	97.262200362947	1
27	57545	97.362197663085	1
27	57604	97.462194963817	1
27	57663	97.562205265141	1
27	57722	97.662202567059	1
27	57781	97.762199869569	1
27	57840	97.862197172673	1
27	57899	97.962194476371	1
27	57961	98.062204780661	1
27	58020	98.162202085545	1
27	58079	98.262199391021	1
27	58138	98.362196697091	1
27	58197	98.462194003755	1
27	58256	98.562204311011	1
27	58315	98.662201618861	1
27	58374	98.762198927303	1
27	58433	98.862196236339	1
27	58492	98.962193545968	1
27	58554	99.06220385619	1
27	58613	99.162201167006	1
27	58672	99.262198478414	1
27	58731	99.362195790416	1
27	58790	99.46220610301	1
27	58849	99.562203416198	1
27	58908	99.662200729978	1
27	58967	99.762198044352	1
27	59026	99.862195359318	1
27	59085	99.962205674878	1
28	625	2	0
28	1218	3	0
28	1811	4	0
28	2404	5	0
28	2997	6	0
28	3590	7	0
28	4183	8	0
28	4776	9	0
28	5371	10	0
28	6002	11	0
28	6605	12	0
28	7208	13	0
28	7811	14	0
28	8414	15	0
28	9017	16	0
28	9620	17	0
28	10223	18	0
28	10826	19	0
28	11429	20	0
28	12032	21	0
28	12635	22	0
28	13238	23	0
28	13841	24	0
28	14444	25	0
28	15047	26	0
28	15650	27	0
28	16253	28	0
28	16856	29	0
28	17459	30	0
28	18062	31	0
28	18665	32	0
28	19268	33	0
28	19871	34	0
28	20474	35	0
28	21077	36	0
28	21741	37	0
28	22334	38	0
28	22927	39	0
28	23520	40	0
28	24113	41	0
28	24706	42	0
28	25299	43	0
28	25892	44	0
28	26485	45	0
28	27078	46	0
28	27671	47	0
28	28264	48	0
28	28857	49	0
28	29450	50	0
28	30043	51	0
28	30636	52	0
28	31229	53	0
28	31822	54	0
28	32415	55	0
28	33008	56	0
28	33601	57	0
28	34194	58	0
28	34787	59	0
28	35380	60	0
28	35973	61	0
28	36566	62	0
28	37159	63	0
28	37752	64	0
28	38345	65	0
28	38938	66	0
28	39531	67	0
28	40124	68	0
28	40717	69	0
28	41310	70	0
28	41903	71	0
28	42496	72	0
28	43089	73	0
28	43682	74	0
28	44275	75	0
28	44868	76	0
28	45461	77	0
28	46054	78	0
28	46647	79	0
28	47240	80	0
28	47833	81	0
28	48426	82	0
28	49019	83	0
28	49612	84	0
28	50205	85	0
28	50798	86	0
28	51391	87	0
28	51984	88	0
28	52577	89	0
28	53170	90	0
28	53763	91	0
28	54356	92	0
28	54949	93	0
28	55542	94	0
28	56135	95	0
28	56728	96	0
28	57321	97	0
28	57914	98	0
28	58507	99	0
28	59100	100	0
29	625	2	0.005313
29	1218	3	0.00625
29	1811	4	0.00625
29	2404	5	0.00625
29	2997	6	0.00625
29	3590	7	0.00625
29	4183	8	0.00625
29	4776	9	0.00625
29	5371	10	0.00625
29	6002	11	0.006299
29	6605	12	0.00625
29	7208	13	0.00625
29	7811	14	0.00625
29	8414	15	0.00625
29	9017	16	0.00625
29	9620	17	0.00625
29	10223	18	0.00625
29	10826	19	0.00625
29	11429	20	0.00625
29	12032	21	0.00625
29	12635	22	0.00625
29	13238	23	0.00625
29	13841	24	0.00625
29	14444	25	0.00625
29	15047	26	0.00625
29	15650	27	0.00625
29	16253	28	0.00625
29	16856	29	0.00625
29	17459	30	0.00625
29	18062	31	0.00625
29	18665	32	0.00625
29	19268	33	0.00625
29	19871	34	0.00625
29	20474	35	0.00625
29	21077	36	0.00625
29	21741	37	0.006539059378
29	22334	38	0.00625
29	22927	39	0.00625
29	23520	40	0.00625
29	24113	41	0.00625
29	24706	42	0.00625
29	25299	43	0.00625
29	25892	44	0.00625
29	26485	45	0.00625
29	27078	46	0.00625
29	27671	47	0.00625
29	28264	48	0.00625
29	28857	49	0.00625
29	29450	50	0.00625
29	30043	51	0.00625
29	30636	52	0.00625
29	31229	53	0.00625
29	31822	54	0.00625
29	32415	55	0.00625
29	33008	56	0.00625
29	33601	57	0.00625
29	34194	58	0.00625
29	34787	59	0.00625
29	35380	60	0.00625
29	35973	61	0.00625
29	36566	62	0.00625
29	37159	63	0.00625
29	37752	64	0.00625
29	38345	65	0.00625
29	38938	66	0.00625
29	39531	67	0.00625
29	40124	68	0.00625
29	40717	69	0.00625
29	41310	70	0.00625
29	41903	71	0.00625
29	42496	72	0.00625
29	43089	73	0.00625
29	43682	74	0.00625
29	44275	75	0.00625
29	44868	76	0.00625
29	45461	77	0.00625
29	46054	78	0.00625
29	46647	79	0.00625
29	47240	80	0.00625
29	47833	81	0.00625
29	48426	82	0.00625
29	49019	83	0.00625
29	49612	84	0.00625
29	50205	85	0.00625
29	50798	86	0.00625
29	51391	87	0.00625
29	51984	88	0.00625
29	52577	89	0.00625
29	53170	90	0.00625
29	53763	91	0.00625
29	54356	92	0.00625
29	54949	93	0.00625
29	55542	94	0.00625
29	56135	95	0.00625
29	56728	96	0.00625
29	57321	97	0.00625
29	57914	98	0.00625
29	58507	99	0.00625
29	59100	100	0.00625
30	625	2	0
30	1218	3	0
30	1811	4	0
30	2404	5	0
30	2997	6	0
30	3590	7	0
30	4183	8	0
30	4776	9	0
30	5371	10	0
30	6002	11	0
30	6605	12	0
30	7208	13	0
30	7811	14	0
30	8414	15	0
30	9017	16	0
30	9620	17	0
30	10223	18	0
30	10826	19	0
30	11429	20	0
30	12032	21	0
30	12635	22	0
30	13238	23	0
30	13841	24	0
30	14444	25	0
30	15047	26	0
30	15650	27	0
30	16253	28	0
30	16856	29	0
30	17459	30	0
30	18062	31	0
30	18665	32	0
30	19268	33	0
30	19871	34	0
30	20474	35	0
30	21077	36	0
30	21741	37	0
30	22334	38	0
30	22927	39	0
30	23520	40	0
30	24113	41	0
30	24706	42	0
30	25299	43	0
30	25892	44	0
30	26485	45	0
30	27078	46	0
30	27671	47	0
30	28264	48	0
30	28857	49	0
30	29450	50	0
30	30043	51	0
30	30636	52	0
30	31229	53	0
30	31822	54	0
30	32415	55	0
30	33008	56	0
30	33601	57	0
30	34194	58	0
30	34787	59	0
30	35380	60	0
30	35973	61	0
30	36566	62	0
30	37159	63	0
30	37752	64	0
30	38345	65	0
30	38938	66	0
30	39531	67	0
30	40124	68	0
30	40717	69	0
30	41310	70	0
30	41903	71	0
30	42496	72	0
30	43089	73	0
30	43682	74	0
30	44275	75	0
30	44868	76	0
30	45461	77	0
30	46054	78	0
30	46647	79	0
30	47240	80	0
30	47833	81	0
30	48426	82	0
30	49019	83	0
30	49612	84	0
30	50205	85	0
30	50798	86	0
30	51391	87	0
30	51984	88	0
30	52577	89	0
30	53170	90	0
30	53763	91	0
30	54356	92	0
30	54949	93	0
30	55542	94	0
30	56135	95	0
30	56728	96	0
30	57321	97	0
30	57914	98	0
30	58507	99	0
30	59100	100	0
31	626	2	1
31	1219	3	1
31	1812	4	1
31	2405	5	1
31	2998	6	1
31	3591	7	1
31	4184	8	1
31	4777	9	1
31	5372	10	1
31	6003	11	1
31	6606	12	1
31	7209	13	1
31	7812	14	1
31	8415	15	1
31	9018	16	1
31	9621	17	1
31	10224	18	1
31	10827	19	1
31	11430	20	1
31	12033	21	1
31	12636	22	1
31	13239	23	1
31	13842	24	1
31	14445	25	1
31	15048	26	1
31	15651	27	1
31	16254	28	1
31	16857	29	1
31	17460	30	1
31	18063	31	1
31	18666	32	1
31	19269	33	1
31	19872	34	1
31	20475	35	1
31	21078	36	1
31	21742	37	1
31	22335	38	1
31	22928	39	1
31	23521	40	1
31	24114	41	1
31	24707	42	1
31	25300	43	1
31	25893	44	1
31	26486	45	1
31	27079	46	1
31	27672	47	1
31	28265	48	1
31	28858	49	1
31	29451	50	1
31	30044	51	1
31	30637	52	1
31	31230	53	1
31	31823	54	1
31	32416	55	1
31	33009	56	1
31	33602	57	1
31	34195	58	1
31	34788	59	1
31	35381	60	1
31	35974	61	1
31	36567	62	1
31	37160	63	1
31	37753	64	1
31	38346	65	1
31	38939	66	1
31	39532	67	1
31	40125	68	1
31	40718	69	1
31	41311	70	1
31	41904	71	1
31	42497	72	1
31	43090	73	1
31	43683	74	1
31	44276	75	1
31	44869	76	1
31	45462	77	1
31	46055	78	1
31	46648	79	1
31	47241	80	1
31	47834	81	1
31	48427	82	1
31	49020	83	1
31	49613	84	1
31	50206	85	1
31	50799	86	1
31	51392	87	1
31	51985	88	1
31	52578	89	1
31	53171	90	1
31	53764	91	1
31	54357	92	1
31	54950	93	1
31	55543	94	1
31	56136	95	1
31	56729	96	1
31	57322	97	1
31	57915	98	1
31	58508	99	1
31	59101	100	1
32	626	2	0.005312
32	1219	3	0.00625
32	1812	4	0.00625
32	2405	5	0.00625
32	2998	6	0.00625
32	3591	7	0.00625
32	4184	8	0.00625
32	4777	9	0.00625
32	5372	10	0.00625
32	6003	11	0.006298
32	6606	12	0.00625
32	7209	13	0.00625
32	7812	14	0.00625
32	8415	15	0.00625
32	9018	16	0.00625
32	9621	17	0.00625
32	10224	18	0.00625
32	10827	19	0.00625
32	11430	20	0.00625
32	12033	21	0.00625
32	12636	22	0.00625
32	13239	23	0.00625
32	13842	24	0.00625
32	14445	25	0.00625
32	15048	26	0.00625
32	15651	27	0.00625
32	16254	28	0.00625
32	16857	29	0.00625
32	17460	30	0.00625
32	18063	31	0.00625
32	18666	32	0.00625
32	19269	33	0.00625
32	19872	34	0.00625
32	20475	35	0.00625
32	21078	36	0.00625
32	21742	37	0.006539059378
32	22335	38	0.00625
32	22928	39	0.00625
32	23521	40	0.00625
32	24114	41	0.00625
32	24707	42	0.00625
32	25300	43	0.00625
32	25893	44	0.00625
32	26486	45	0.00625
32	27079	46	0.00625
32	27672	47	0.00625
32	28265	48	0.00625
32	28858	49	0.00625
32	29451	50	0.00625
32	30044	51	0.00625
32	30637	52	0.00625
32	31230	53	0.00625
32	31823	54	0.00625
32	32416	55	0.00625
32	33009	56	0.00625
32	33602	57	0.00625
32	34195	58	0.00625
32	34788	59	0.00625
32	35381	60	0.00625
32	35974	61	0.00625
32	36567	62	0.00625
32	37160	63	0.00625
32	37753	64	0.00625
32	38346	65	0.00625
32	38939	66	0.00625
32	39532	67	0.00625
32	40125	68	0.00625
32	40718	69	0.00625
32	41311	70	0.00625
32	41904	71	0.00625
32	42497	72	0.00625
32	43090	73	0.00625
32	43683	74	0.00625
32	44276	75	0.00625
32	44869	76	0.00625
32	45462	77	0.00625
32	46055	78	0.00625
32	46648	79	0.00625
32	47241	80	0.00625
32	47834	81	0.00625
32	48427	82	0.00625
32	49020	83	0.00625
32	49613	84	0.00625
32	50206	85	0.00625
32	50799	86	0.00625
32	51392	87	0.00625
32	51985	88	0.00625
32	52578	89	0.00625
32	53171	90	0.00625
32	53764	91	0.00625
32	54357	92	0.00625
32	54950	93	0.00625
32	55543	94	0.00625
32	56136	95	0.00625
32	56729	96	0.00625
32	57322	97	0.00625
32	57915	98	0.00625
32	58508	99	0.00625
32	59101	100	0.00625
33	626	2	0
33	1219	3	0
33	1812	4	0
33	2405	5	0
33	2998	6	0
33	3591	7	0
33	4184	8	0
33	4777	9	0
33	5372	10	0
33	6003	11	0
33	6606	12	0
33	7209	13	0
33	7812	14	0
33	8415	15	0
33	9018	16	0
33	9621	17	0
33	10224	18	0
33	10827	19	0
33	11430	20	0
33	12033	21	0
33	12636	22	0
33	13239	23	0
33	13842	24	0
33	14445	25	0
33	15048	26	0
33	15651	27	0
33	16254	28	0
33	16857	29	0
33	17460	30	0
33	18063	31	0
33	18666	32	0
33	19269	33	0
33	19872	34	0
33	20475	35	0
33	21078	36	0
33	21742	37	0
33	22335	38	0
33	22928	39	0
33	23521	40	0
33	24114	41	0
33	24707	42	0
33	25300	43	0
33	25893	44	0
33	26486	45	0
33	27079	46	0
33	27672	47	0
33	28265	48	0
33	28858	49	0
33	29451	50	0
33	30044	51	0
33	30637	52	0
33	31230	53	0
33	31823	54	0
33	32416	55	0
33	33009	56	0
33	33602	57	0
33	34195	58	0
33	34788	59	0
33	35381	60	0
33	35974	61	0
33	36567	62	0
33	37160	63	0
33	37753	64	0
33	38346	65	0
33	38939	66	0
33	39532	67	0
33	40125	68	0
33	40718	69	0
33	41311	70	0
33	41904	71	0
33	42497	72	0
33	43090	73	0
33	43683	74	0
33	44276	75	0
33	44869	76	0
33	45462	77	0
33	46055	78	0
33	46648	79	0
33	47241	80	0
33	47834	81	0
33	48427	82	0
33	49020	83	0
33	49613	84	0
33	50206	85	0
33	50799	86	0
33	51392	87	0
33	51985	88	0
33	52578	89	0
33	53171	90	0
33	53764	91	0
33	54357	92	0
33	54950	93	0
33	55543	94	0
33	56136	95	0
33	56729	96	0
33	57322	97	0
33	57915	98	0
33	58508	99	0
33	59101	100	0
34	627	2	2
34	1220	3	2
34	1813	4	2
34	2406	5	2
34	2999	6	2
34	3592	7	2
34	4185	8	2
34	4778	9	2
34	5373	10	2
34	6004	11	2
34	6607	12	2
34	7210	13	2
34	7813	14	2
34	8416	15	2
34	9019	16	2
34	9622	17	2
34	10225	18	2
34	10828	19	2
34	11431	20	2
34	12034	21	2
34	12637	22	2
34	13240	23	2
34	13843	24	2
34	14446	25	2
34	15049	26	2
34	15652	27	2
34	16255	28	2
34	16858	29	2
34	17461	30	2
34	18064	31	2
34	18667	32	2
34	19270	33	2
34	19873	34	2
34	20476	35	2
34	21079	36	2
34	21743	37	2
34	22336	38	2
34	22929	39	2
34	23522	40	2
34	24115	41	2
34	24708	42	2
34	25301	43	2
34	25894	44	2
34	26487	45	2
34	27080	46	2
34	27673	47	2
34	28266	48	2
34	28859	49	2
34	29452	50	2
34	30045	51	2
34	30638	52	2
34	31231	53	2
34	31824	54	2
34	32417	55	2
34	33010	56	2
34	33603	57	2
34	34196	58	2
34	34789	59	2
34	35382	60	2
34	35975	61	2
34	36568	62	2
34	37161	63	2
34	37754	64	2
34	38347	65	2
34	38940	66	2
34	39533	67	2
34	40126	68	2
34	40719	69	2
34	41312	70	2
34	41905	71	2
34	42498	72	2
34	43091	73	2
34	43684	74	2
34	44277	75	2
34	44870	76	2
34	45463	77	2
34	46056	78	2
34	46649	79	2
34	47242	80	2
34	47835	81	2
34	48428	82	2
34	49021	83	2
34	49614	84	2
34	50207	85	2
34	50800	86	2
34	51393	87	2
34	51986	88	2
34	52579	89	2
34	53172	90	2
34	53765	91	2
34	54358	92	2
34	54951	93	2
34	55544	94	2
34	56137	95	2
34	56730	96	2
34	57323	97	2
34	57916	98	2
34	58509	99	2
34	59102	100	2
35	627	2	0.002817
35	1220	3	0.00313
35	1813	4	0.00313
35	2406	5	0.00313
35	2999	6	0.00313
35	3592	7	0.00313
35	4185	8	0.00313
35	4778	9	0.00313
35	5373	10	0.00313
35	6004	11	0.003179
35	6607	12	0.00313
35	7210	13	0.00313
35	7813	14	0.00313
35	8416	15	0.00313
35	9019	16	0.00313
35	9622	17	0.00313
35	10225	18	0.00313
35	10828	19	0.00313
35	11431	20	0.00313
35	12034	21	0.00313
35	12637	22	0.00313
35	13240	23	0.00313
35	13843	24	0.00313
35	14446	25	0.00313
35	15049	26	0.00313
35	15652	27	0.00313
35	16255	28	0.00313
35	16858	29	0.00313
35	17461	30	0.00313
35	18064	31	0.00313
35	18667	32	0.00313
35	19270	33	0.00313
35	19873	34	0.00313
35	20476	35	0.00313
35	21079	36	0.00313
35	21743	37	0.00313
35	22336	38	0.00313
35	22929	39	0.00313
35	23522	40	0.00313
35	24115	41	0.00313
35	24708	42	0.00313
35	25301	43	0.00313
35	25894	44	0.00313
35	26487	45	0.00313
35	27080	46	0.00313
35	27673	47	0.00313
35	28266	48	0.00313
35	28859	49	0.00313
35	29452	50	0.00313
35	30045	51	0.00313
35	30638	52	0.00313
35	31231	53	0.00313
35	31824	54	0.00313
35	32417	55	0.00313
35	33010	56	0.00313
35	33603	57	0.00313
35	34196	58	0.00313
35	34789	59	0.00313
35	35382	60	0.00313
35	35975	61	0.00313
35	36568	62	0.00313
35	37161	63	0.00313
35	37754	64	0.00313
35	38347	65	0.00313
35	38940	66	0.00313
35	39533	67	0.00313
35	40126	68	0.00313
35	40719	69	0.00313
35	41312	70	0.00313
35	41905	71	0.00313
35	42498	72	0.00313
35	43091	73	0.00313
35	43684	74	0.00313
35	44277	75	0.00313
35	44870	76	0.00313
35	45463	77	0.00313
35	46056	78	0.00313
35	46649	79	0.00313
35	47242	80	0.00313
35	47835	81	0.00313
35	48428	82	0.00313
35	49021	83	0.00313
35	49614	84	0.00313
35	50207	85	0.00313
35	50800	86	0.00313
35	51393	87	0.00313
35	51986	88	0.00313
35	52579	89	0.00313
35	53172	90	0.00313
35	53765	91	0.00313
35	54358	92	0.00313
35	54951	93	0.00313
35	55544	94	0.00313
35	56137	95	0.00313
35	56730	96	0.00313
35	57323	97	0.00313
35	57916	98	0.00313
35	58509	99	0.00313
35	59102	100	0.00313
36	627	2	0
36	1220	3	0
36	1813	4	0
36	2406	5	0
36	2999	6	0
36	3592	7	0
36	4185	8	0
36	4778	9	0
36	5373	10	0
36	6004	11	0
36	6607	12	0
36	7210	13	0
36	7813	14	0
36	8416	15	0
36	9019	16	0
36	9622	17	0
36	10225	18	0
36	10828	19	0
36	11431	20	0
36	12034	21	0
36	12637	22	0
36	13240	23	0
36	13843	24	0
36	14446	25	0
36	15049	26	0
36	15652	27	0
36	16255	28	0
36	16858	29	0
36	17461	30	0
36	18064	31	0
36	18667	32	0
36	19270	33	0
36	19873	34	0
36	20476	35	0
36	21079	36	0
36	21743	37	0
36	22336	38	0
36	22929	39	0
36	23522	40	0
36	24115	41	0
36	24708	42	0
36	25301	43	0
36	25894	44	0
36	26487	45	0
36	27080	46	0
36	27673	47	0
36	28266	48	0
36	28859	49	0
36	29452	50	0
36	30045	51	0
36	30638	52	0
36	31231	53	0
36	31824	54	0
36	32417	55	0
36	33010	56	0
36	33603	57	0
36	34196	58	0
36	34789	59	0
36	35382	60	0
36	35975	61	0
36	36568	62	0
36	37161	63	0
36	37754	64	0
36	38347	65	0
36	38940	66	0
36	39533	67	0
36	40126	68	0
36	40719	69	0
36	41312	70	0
36	41905	71	0
36	42498	72	0
36	43091	73	0
36	43684	74	0
36	44277	75	0
36	44870	76	0
36	45463	77	0
36	46056	78	0
36	46649	79	0
36	47242	80	0
36	47835	81	0
36	48428	82	0
36	49021	83	0
36	49614	84	0
36	50207	85	0
36	50800	86	0
36	51393	87	0
36	51986	88	0
36	52579	89	0
36	53172	90	0
36	53765	91	0
36	54358	92	0
36	54951	93	0
36	55544	94	0
36	56137	95	0
36	56730	96	0
36	57323	97	0
36	57916	98	0
36	58509	99	0
36	59102	100	0

