version 3
run BreakRanksNoGui-1547-20240710-16:30:29-265603
attr configname BreakRanksNoGui
attr datetime 20240710-16:30:29
attr datetimef 20240710-163029
attr experiment BreakRanksNoGui
attr inifile omnetpp.ini
attr iterationvars "$nCars=12, $platoonSize=6, $nLanes=1, $ploegH=0.5, $controller=1, $headway=0.1, $leaderHeadway=1.2, $leaderSpeed=110, $breakRanksSafetyDistance=5, $minSpeed=100, $maxSpeed=120, $beaconInterval=0.1, $priority=4, $packetSize=200, $sController=\"CACC\", $0=2, $1=0"
attr iterationvarsd nCars=12/platoonSize=6/nLanes=1/ploegH=0.5/controller=1/headway=0.1/leaderHeadway=1.2/leaderSpeed=110/breakRanksSafetyDistance=5/minSpeed=100/maxSpeed=120/beaconInterval=0.1/priority=4/packetSize=200/sController=CACC/2/0
attr iterationvarsf nCars=12,platoonSize=6,nLanes=1,ploegH=0.5,controller=1,headway=0.1,leaderHeadway=1.2,leaderSpeed=110,breakRanksSafetyDistance=5,minSpeed=100,maxSpeed=120,beaconInterval=0.1,priority=4,packetSize=200,sController=CACC,2,0-
attr measurement "$nCars=12, $platoonSize=6, $nLanes=1, $ploegH=0.5, $controller=1, $headway=0.1, $leaderHeadway=1.2, $leaderSpeed=110, $breakRanksSafetyDistance=5, $minSpeed=100, $maxSpeed=120, $beaconInterval=0.1, $priority=4, $packetSize=200, $sController=\"CACC\", $0=2, $1=0"
attr network Highway
attr processid 265603
attr repetition 7
attr replication #7
attr resultdir results
attr runnumber 1547
attr seedset 7
itervar beaconInterval 0.1
itervar breakRanksSafetyDistance 5
itervar controller 1
itervar headway 0.1
itervar leaderHeadway 1.2
itervar leaderSpeed 110
itervar maxSpeed 120
itervar minSpeed 100
itervar nCars 12
itervar nLanes 1
itervar packetSize 200
itervar platoonSize 6
itervar ploegH 0.5
itervar priority 4
itervar sController "\"CACC\""
config image-path ../../../veins/images
config repeat 10
config extends BreakRanks
config *.manager.command "\"sumo\""
config *.manager.ignoreGuiCommands true
config output-vector-file "results/BreakRanks_1_0.1_110_5_6 /result_7.vec"
config output-scalar-file "results/BreakRanks_1_0.1_110_5_6 /result_7.sca"
config extends Platooning
config *.node[*].scenario_type "\"BreakRanksScenario\""
config *.manager.command "\"sumo-gui\""
config *.node[*].scenario_type "\"SimpleScenario\""
config cmdenv-express-mode true
config cmdenv-autoflush true
config cmdenv-status-frequency 15s
config num-rngs 6
config network Highway
config debug-on-errors true
config print-undisposed true
config *.playgroundSizeX 65000m
config *.playgroundSizeY 25000m
config *.playgroundSizeZ 50m
config sim-time-limit "100 s"
config *.annotations.draw false
config *.obstacles.debug false
config *.world.useTorus false
config *.world.use2D false
config *.manager.updateInterval 0.01s
config *.manager.host "\"localhost\""
config *.manager.moduleType "\"org.car2x.plexe.PlatoonCar\""
config *.manager.moduleName "\"node\""
config *.manager.moduleDisplayString "\"\""
config *.manager.autoShutdown true
config *.manager.margin 25
config *.connectionManager.sendDirect true
config *.connectionManager.maxInterfDist 2600m
config *.connectionManager.drawMaxIntfDist false
config *.**.nic.mac1609_4.useServiceChannel false
config *.**.nic.mac1609_4.txPower 100mW
config *.**.nic.mac1609_4.bitrate 6Mbps
config *.**.nic.mac1609_4.useAcks true
config *.**.nic.mac1609_4.ackErrorRate 0.0
config *.**.nic.mac1609_4.frameErrorRate 0.0
config *.**.nic.phy80211p.minPowerLevel -94dBm
config *.**.nic.phy80211p.maxTXPower 100mW
config *.**.nic.phy80211p.useNoiseFloor true
config *.**.nic.phy80211p.noiseFloor -95dBm
config *.**.nic.phy80211p.decider "xmldoc(\"config.xml\")"
config *.**.nic.phy80211p.analogueModels "xmldoc(\"config.xml\")"
config *.**.nic.phy80211p.usePropagationDelay true
config *.node[*].mobility.x 0
config *.node[*].mobility.y 0
config *.node[*].mobility.z 1.895
config seed-set 7
config **.seed 7
config *.node[*].prot.rng-0 2
config *.node[*].appl.rng-0 3
config *.node[*].scenario.rng-0 4
config **.traffic.rng-0 5
config *.manager.configFile "\"./sumocfg/freeway.sumo.cfg\""
config *.manager.launchConfig "xmldoc(\"./sumocfg/freeway.launchd.xml\")"
config **.numberOfCars 12
config **.numberOfCarsPerPlatoon 6
config **.numberOfLanes 1
config *.node[*].helper_type "\"PositionHelper\""
config *.node[*].scenario.caccC1 0.5
config *.node[*].scenario.caccXi 1
config *.node[*].scenario.caccOmegaN "0.2 Hz"
config *.node[*].scenario.caccSpacing "2 m"
config *.node[*].scenario.engineTau "0.5 s"
config *.node[*].scenario.ploegH 0.5s
config *.node[*].scenario.ploegKp 0.2
config *.node[*].scenario.ploegKd 0.7
config *.node[*].scenario.useRealisticEngine false
config *.node[*].scenario.useControllerAcceleration true
config *.node[*].scenario.nLanes 1
config **.numericController 1
config **.headway 0.1s
config *.node[*].scenario.accHeadway 0.1s
config *.node[*].scenario.leaderHeadway 1.2s
config *.node[*].scenario.leaderSpeed 110kmph
config *.node[*].appl_type "\"SimplePlatooningApp\""
config *.node[*].appl.*.scalar-recording true
config *.node[*].appl.*.vector-recording true
config *.node[0].appl.breakRanksSafetyDistance 5m
config *.node[*].appl.minSpeed 100kmph
config *.node[*].appl.maxSpeed 120kmph
config *.node[*].protocol_type "\"SimplePlatooningBeaconing\""
config *.node[*].prot.*.scalar-recording true
config *.node[*].prot.*.vector-recording true
config *.node[*].prot.beaconingInterval 0.1s
config *.node[*].prot.priority 4
config *.node[*].prot.packetSize 200
config **.traffic_type "\"PlatoonsTrafficManager\""
config **.traffic.platoonInsertTime "1 s"
config **.traffic.platoonInsertSpeed 110kmph
config **.traffic.nCars 12
config **.traffic.platoonSize 6
config **.traffic.nLanes 1
config **.traffic.platooningVType "\"vtypeauto\""
config **.traffic.controller "\"CACC\""
config **.traffic.platoonInsertDistance 2m
config **.traffic.platoonInsertHeadway 0s
config **.traffic.platoonLeaderHeadway 1.2s
config **.scalar-recording false
config **.vector-recording false

vector 0 Highway.node[0].appl distance ETV
vector 1 Highway.node[0].appl relativeSpeed ETV
vector 2 Highway.node[0].appl nodeId ETV
vector 3 Highway.node[0].appl acceleration ETV
vector 4 Highway.node[0].appl controllerAcceleration ETV
vector 5 Highway.node[0].appl speed ETV
vector 6 Highway.node[0].appl posx ETV
vector 7 Highway.node[0].appl posy ETV
vector 8 Highway.node[1].appl distance ETV
vector 9 Highway.node[1].appl relativeSpeed ETV
vector 10 Highway.node[1].appl nodeId ETV
vector 11 Highway.node[1].appl acceleration ETV
vector 12 Highway.node[1].appl controllerAcceleration ETV
vector 13 Highway.node[1].appl speed ETV
vector 14 Highway.node[1].appl posx ETV
vector 15 Highway.node[1].appl posy ETV
vector 16 Highway.node[2].appl distance ETV
vector 17 Highway.node[2].appl relativeSpeed ETV
vector 18 Highway.node[2].appl nodeId ETV
vector 19 Highway.node[2].appl acceleration ETV
vector 20 Highway.node[2].appl controllerAcceleration ETV
vector 21 Highway.node[2].appl speed ETV
vector 22 Highway.node[2].appl posx ETV
vector 23 Highway.node[2].appl posy ETV
vector 24 Highway.node[3].appl distance ETV
vector 25 Highway.node[3].appl relativeSpeed ETV
vector 26 Highway.node[3].appl nodeId ETV
vector 27 Highway.node[3].appl acceleration ETV
vector 28 Highway.node[3].appl controllerAcceleration ETV
vector 29 Highway.node[3].appl speed ETV
vector 30 Highway.node[3].appl posx ETV
vector 31 Highway.node[3].appl posy ETV
vector 32 Highway.node[4].appl distance ETV
vector 33 Highway.node[4].appl relativeSpeed ETV
vector 34 Highway.node[4].appl nodeId ETV
vector 35 Highway.node[4].appl acceleration ETV
vector 36 Highway.node[4].appl controllerAcceleration ETV
vector 37 Highway.node[4].appl speed ETV
vector 38 Highway.node[4].appl posx ETV
vector 39 Highway.node[4].appl posy ETV
vector 40 Highway.node[5].appl distance ETV
vector 41 Highway.node[5].appl relativeSpeed ETV
vector 42 Highway.node[5].appl nodeId ETV
vector 43 Highway.node[5].appl acceleration ETV
vector 44 Highway.node[5].appl controllerAcceleration ETV
vector 45 Highway.node[5].appl speed ETV
vector 46 Highway.node[5].appl posx ETV
vector 47 Highway.node[5].appl posy ETV
vector 48 Highway.node[6].appl distance ETV
vector 49 Highway.node[6].appl relativeSpeed ETV
vector 50 Highway.node[6].appl nodeId ETV
vector 51 Highway.node[6].appl acceleration ETV
vector 52 Highway.node[6].appl controllerAcceleration ETV
vector 53 Highway.node[6].appl speed ETV
vector 54 Highway.node[6].appl posx ETV
vector 55 Highway.node[6].appl posy ETV
vector 56 Highway.node[7].appl distance ETV
vector 57 Highway.node[7].appl relativeSpeed ETV
vector 58 Highway.node[7].appl nodeId ETV
vector 59 Highway.node[7].appl acceleration ETV
vector 60 Highway.node[7].appl controllerAcceleration ETV
vector 61 Highway.node[7].appl speed ETV
vector 62 Highway.node[7].appl posx ETV
vector 63 Highway.node[7].appl posy ETV
vector 64 Highway.node[8].appl distance ETV
vector 65 Highway.node[8].appl relativeSpeed ETV
vector 66 Highway.node[8].appl nodeId ETV
vector 67 Highway.node[8].appl acceleration ETV
vector 68 Highway.node[8].appl controllerAcceleration ETV
vector 69 Highway.node[8].appl speed ETV
vector 70 Highway.node[8].appl posx ETV
vector 71 Highway.node[8].appl posy ETV
vector 72 Highway.node[9].appl distance ETV
vector 73 Highway.node[9].appl relativeSpeed ETV
vector 74 Highway.node[9].appl nodeId ETV
vector 75 Highway.node[9].appl acceleration ETV
vector 76 Highway.node[9].appl controllerAcceleration ETV
vector 77 Highway.node[9].appl speed ETV
vector 78 Highway.node[9].appl posx ETV
vector 79 Highway.node[9].appl posy ETV
vector 80 Highway.node[10].appl distance ETV
vector 81 Highway.node[10].appl relativeSpeed ETV
vector 82 Highway.node[10].appl nodeId ETV
vector 83 Highway.node[10].appl acceleration ETV
vector 84 Highway.node[10].appl controllerAcceleration ETV
vector 85 Highway.node[10].appl speed ETV
vector 86 Highway.node[10].appl posx ETV
vector 87 Highway.node[10].appl posy ETV
vector 88 Highway.node[11].appl distance ETV
vector 89 Highway.node[11].appl relativeSpeed ETV
vector 90 Highway.node[11].appl nodeId ETV
vector 91 Highway.node[11].appl acceleration ETV
vector 92 Highway.node[11].appl controllerAcceleration ETV
vector 93 Highway.node[11].appl speed ETV
vector 94 Highway.node[11].appl posx ETV
vector 95 Highway.node[11].appl posy ETV
vector 96 Highway.node[3].prot frontDelay ETV
vector 97 Highway.node[3].prot frontDelayId ETV
vector 98 Highway.node[2].prot frontDelay ETV
vector 99 Highway.node[2].prot frontDelayId ETV
vector 100 Highway.node[10].prot frontDelay ETV
vector 101 Highway.node[10].prot frontDelayId ETV
vector 102 Highway.node[9].prot leaderDelay ETV
vector 103 Highway.node[9].prot leaderDelayId ETV
vector 104 Highway.node[9].prot frontDelay ETV
vector 105 Highway.node[9].prot frontDelayId ETV
vector 106 Highway.node[10].prot leaderDelay ETV
vector 107 Highway.node[10].prot leaderDelayId ETV
vector 108 Highway.node[11].prot leaderDelay ETV
vector 109 Highway.node[11].prot leaderDelayId ETV
vector 110 Highway.node[2].prot leaderDelay ETV
vector 111 Highway.node[2].prot leaderDelayId ETV
vector 112 Highway.node[3].prot leaderDelay ETV
vector 113 Highway.node[3].prot leaderDelayId ETV
vector 114 Highway.node[7].prot frontDelay ETV
vector 115 Highway.node[7].prot frontDelayId ETV
vector 116 Highway.node[4].prot frontDelay ETV
vector 117 Highway.node[4].prot frontDelayId ETV
vector 118 Highway.node[11].prot frontDelay ETV
vector 119 Highway.node[11].prot frontDelayId ETV
vector 120 Highway.node[6].prot frontDelay ETV
vector 121 Highway.node[6].prot frontDelayId ETV
vector 122 Highway.node[5].prot frontDelay ETV
vector 123 Highway.node[5].prot frontDelayId ETV
vector 124 Highway.node[1].prot leaderDelay ETV
vector 125 Highway.node[1].prot leaderDelayId ETV
vector 126 Highway.node[1].prot frontDelay ETV
vector 127 Highway.node[1].prot frontDelayId ETV
vector 128 Highway.node[4].prot leaderDelay ETV
vector 129 Highway.node[4].prot leaderDelayId ETV
vector 130 Highway.node[5].prot leaderDelay ETV
vector 131 Highway.node[5].prot leaderDelayId ETV
vector 132 Highway.node[6].prot leaderDelay ETV
vector 133 Highway.node[6].prot leaderDelayId ETV
vector 134 Highway.node[7].prot leaderDelay ETV
vector 135 Highway.node[7].prot leaderDelayId ETV
vector 136 Highway.node[0].prot nodeId ETV
vector 137 Highway.node[0].prot busyTime ETV
vector 138 Highway.node[0].prot collisions ETV
vector 139 Highway.node[1].prot nodeId ETV
vector 140 Highway.node[1].prot busyTime ETV
vector 141 Highway.node[1].prot collisions ETV
vector 142 Highway.node[2].prot nodeId ETV
vector 143 Highway.node[2].prot busyTime ETV
vector 144 Highway.node[2].prot collisions ETV
vector 145 Highway.node[3].prot nodeId ETV
vector 146 Highway.node[3].prot busyTime ETV
vector 147 Highway.node[3].prot collisions ETV
vector 148 Highway.node[4].prot nodeId ETV
vector 149 Highway.node[4].prot busyTime ETV
vector 150 Highway.node[4].prot collisions ETV
vector 151 Highway.node[5].prot nodeId ETV
vector 152 Highway.node[5].prot busyTime ETV
vector 153 Highway.node[5].prot collisions ETV
vector 154 Highway.node[6].prot nodeId ETV
vector 155 Highway.node[6].prot busyTime ETV
vector 156 Highway.node[6].prot collisions ETV
vector 157 Highway.node[7].prot nodeId ETV
vector 158 Highway.node[7].prot busyTime ETV
vector 159 Highway.node[7].prot collisions ETV
vector 160 Highway.node[8].prot nodeId ETV
vector 161 Highway.node[8].prot busyTime ETV
vector 162 Highway.node[8].prot collisions ETV
vector 163 Highway.node[9].prot nodeId ETV
vector 164 Highway.node[9].prot busyTime ETV
vector 165 Highway.node[9].prot collisions ETV
vector 166 Highway.node[10].prot nodeId ETV
vector 167 Highway.node[10].prot busyTime ETV
vector 168 Highway.node[10].prot collisions ETV
vector 169 Highway.node[11].prot nodeId ETV
vector 170 Highway.node[11].prot busyTime ETV
vector 171 Highway.node[11].prot collisions ETV
0	113	1.11	-1
0	1311	1.21	-1
0	2509	1.31	-1
0	3707	1.41	-1
0	4905	1.51	-1
0	6103	1.61	-1
0	7301	1.71	-1
0	8499	1.81	-1
0	9697	1.91	-1
0	10907	2.01	-1
0	12105	2.11	-1
0	13303	2.21	-1
0	14501	2.31	-1
0	15699	2.41	-1
0	16897	2.51	-1
0	18095	2.61	-1
0	19293	2.71	-1
0	20491	2.81	-1
0	21689	2.91	-1
0	22899	3.01	-1
0	24097	3.11	-1
0	25295	3.21	-1
0	26493	3.31	-1
0	27691	3.41	-1
0	28889	3.51	-1
0	30087	3.61	-1
0	31285	3.71	-1
0	32483	3.81	-1
0	33681	3.91	-1
0	34891	4.01	-1
0	36089	4.11	-1
0	37287	4.21	-1
0	38485	4.31	-1
0	39683	4.41	-1
0	40881	4.51	-1
0	42079	4.61	-1
0	43277	4.71	-1
0	44475	4.81	-1
0	45673	4.91	-1
0	46883	5.01	-1
0	48081	5.11	-1
0	49279	5.21	-1
0	50477	5.31	-1
0	51675	5.41	-1
0	52873	5.51	-1
0	54071	5.61	-1
0	55269	5.71	-1
0	56467	5.81	-1
0	57665	5.91	-1
0	58875	6.01	-1
0	60073	6.11	-1
0	61271	6.21	-1
0	62469	6.31	-1
0	63667	6.41	-1
0	64865	6.51	-1
0	66063	6.61	-1
0	67261	6.71	-1
0	68459	6.81	-1
0	69657	6.91	-1
0	70867	7.01	-1
0	72065	7.11	-1
0	73263	7.21	-1
0	74461	7.31	-1
0	75659	7.41	-1
0	76857	7.51	-1
0	78055	7.61	-1
0	79253	7.71	-1
0	80451	7.81	-1
0	81649	7.91	-1
0	82859	8.01	-1
0	84057	8.11	-1
0	85255	8.21	-1
0	86453	8.31	-1
0	87651	8.41	-1
0	88849	8.51	-1
0	90047	8.61	-1
0	91245	8.71	-1
0	92443	8.81	-1
0	93641	8.91	-1
0	94851	9.01	-1
0	96049	9.11	-1
0	97247	9.21	-1
0	98445	9.31	-1
0	99643	9.41	-1
0	100841	9.51	-1
0	102039	9.61	-1
0	103237	9.71	-1
0	104435	9.81	-1
0	105633	9.91	-1
0	106999	10.01	-1
0	108206	10.11	-1
0	109413	10.21	-1
0	110620	10.31	-1
0	111827	10.41	-1
0	113034	10.51	-1
0	114241	10.61	-1
0	115448	10.71	-1
0	116655	10.81	-1
0	117862	10.91	-1
0	119081	11.01	-1
0	120288	11.11	-1
0	121495	11.21	-1
0	122702	11.31	-1
0	123909	11.41	-1
0	125116	11.51	-1
0	126323	11.61	-1
0	127530	11.71	-1
0	128737	11.81	-1
0	129944	11.91	-1
0	131163	12.01	-1
0	132370	12.11	-1
0	133577	12.21	-1
0	134784	12.31	-1
0	135991	12.41	-1
0	137198	12.51	-1
0	138405	12.61	-1
0	139612	12.71	-1
0	140819	12.81	-1
0	142026	12.91	-1
0	143245	13.01	-1
0	144452	13.11	-1
0	145659	13.21	-1
0	146866	13.31	-1
0	148073	13.41	-1
0	149280	13.51	-1
0	150487	13.61	-1
0	151694	13.71	-1
0	152901	13.81	-1
0	154108	13.91	-1
0	155327	14.01	-1
0	156534	14.11	-1
0	157741	14.21	-1
0	158948	14.31	-1
0	160155	14.41	-1
0	161362	14.51	-1
0	162569	14.61	-1
0	163776	14.71	-1
0	164983	14.81	-1
0	166190	14.91	-1
0	167409	15.01	-1
0	168616	15.11	-1
0	169823	15.21	-1
0	171030	15.31	-1
0	172237	15.41	-1
0	173444	15.51	-1
0	174651	15.61	-1
0	175858	15.71	-1
0	177065	15.81	-1
0	178272	15.91	-1
0	179491	16.01	-1
0	180698	16.11	-1
0	181905	16.21	-1
0	183112	16.31	-1
0	184319	16.41	-1
0	185526	16.51	-1
0	186733	16.61	-1
0	187940	16.71	-1
0	189147	16.81	-1
0	190354	16.91	-1
0	191573	17.01	-1
0	192780	17.11	-1
0	193987	17.21	-1
0	195194	17.31	-1
0	196401	17.41	-1
0	197608	17.51	-1
0	198815	17.61	-1
0	200022	17.71	-1
0	201229	17.81	-1
0	202436	17.91	-1
0	203655	18.01	-1
0	204862	18.11	-1
0	206069	18.21	-1
0	207276	18.31	-1
0	208483	18.41	-1
0	209690	18.51	-1
0	210897	18.61	-1
0	212104	18.71	-1
0	213311	18.81	-1
0	214518	18.91	-1
0	215737	19.01	-1
0	216944	19.11	-1
0	218151	19.21	-1
0	219358	19.31	-1
0	220565	19.41	-1
0	221772	19.51	-1
0	222979	19.61	-1
0	224186	19.71	-1
0	225393	19.81	-1
0	226600	19.91	-1
0	227819	20.01	-1
0	229026	20.11	-1
0	230233	20.21	-1
0	231440	20.31	-1
0	232647	20.41	-1
0	233854	20.51	-1
0	235061	20.61	-1
0	236268	20.71	-1
0	237475	20.81	-1
0	238682	20.91	-1
0	239901	21.01	-1
0	241108	21.11	-1
0	242315	21.21	-1
0	243522	21.31	-1
0	244729	21.41	-1
0	245936	21.51	-1
0	247143	21.61	-1
0	248350	21.71	-1
0	249557	21.81	-1
0	250764	21.91	-1
0	251983	22.01	-1
0	253190	22.11	-1
0	254397	22.21	-1
0	255604	22.31	-1
0	256811	22.41	-1
0	258018	22.51	-1
0	259225	22.61	-1
0	260432	22.71	-1
0	261639	22.81	-1
0	262846	22.91	-1
0	264065	23.01	-1
0	265272	23.11	-1
0	266479	23.21	-1
0	267686	23.31	-1
0	268893	23.41	-1
0	270100	23.51	-1
0	271307	23.61	-1
0	272514	23.71	-1
0	273721	23.81	-1
0	274928	23.91	-1
0	276147	24.01	-1
0	277354	24.11	-1
0	278561	24.21	-1
0	279768	24.31	-1
0	280975	24.41	-1
0	282182	24.51	-1
0	283389	24.61	-1
0	284596	24.71	-1
0	285803	24.81	-1
0	287010	24.91	-1
0	288229	25.01	-1
0	289436	25.11	-1
0	290643	25.21	-1
0	291850	25.31	-1
0	293057	25.41	-1
0	294264	25.51	-1
0	295471	25.61	-1
0	296678	25.71	-1
0	297885	25.81	-1
0	299092	25.91	-1
0	300311	26.01	-1
0	301518	26.11	-1
0	302725	26.21	-1
0	303932	26.31	-1
0	305139	26.41	-1
0	306346	26.51	-1
0	307553	26.61	-1
0	308760	26.71	-1
0	309967	26.81	-1
0	311174	26.91	-1
0	312393	27.01	-1
0	313600	27.11	-1
0	314807	27.21	-1
0	316014	27.31	-1
0	317221	27.41	-1
0	318428	27.51	-1
0	319635	27.61	-1
0	320842	27.71	-1
0	322049	27.81	-1
0	323256	27.91	-1
0	324475	28.01	-1
0	325682	28.11	-1
0	326889	28.21	-1
0	328096	28.31	-1
0	329303	28.41	-1
0	330510	28.51	-1
0	331717	28.61	-1
0	332924	28.71	-1
0	334131	28.81	-1
0	335338	28.91	-1
0	336557	29.01	-1
0	337764	29.11	-1
0	338971	29.21	-1
0	340178	29.31	-1
0	341385	29.41	-1
0	342592	29.51	-1
0	343799	29.61	-1
0	345006	29.71	-1
0	346213	29.81	-1
0	347420	29.91	-1
0	348639	30.01	-1
0	349846	30.11	-1
0	351053	30.21	-1
0	352260	30.31	-1
0	353467	30.41	-1
0	354674	30.51	-1
0	355881	30.61	-1
0	357088	30.71	-1
0	358295	30.81	-1
0	359502	30.91	-1
0	360721	31.01	-1
0	361928	31.11	-1
0	363135	31.21	-1
0	364342	31.31	-1
0	365549	31.41	-1
0	366756	31.51	-1
0	367963	31.61	-1
0	369170	31.71	-1
0	370377	31.81	-1
0	371584	31.91	-1
0	372803	32.01	-1
0	374010	32.11	-1
0	375217	32.21	-1
0	376424	32.31	-1
0	377631	32.41	-1
0	378838	32.51	-1
0	380045	32.61	-1
0	381252	32.71	-1
0	382459	32.81	-1
0	383666	32.91	-1
0	384885	33.01	-1
0	386092	33.11	-1
0	387299	33.21	-1
0	388506	33.31	-1
0	389713	33.41	-1
0	390920	33.51	-1
0	392127	33.61	-1
0	393334	33.71	-1
0	394541	33.81	-1
0	395748	33.91	-1
0	396967	34.01	-1
0	398174	34.11	-1
0	399381	34.21	-1
0	400588	34.31	-1
0	401795	34.41	-1
0	403002	34.51	-1
0	404209	34.61	-1
0	405416	34.71	-1
0	406623	34.81	-1
0	407830	34.91	-1
0	409049	35.01	-1
0	410256	35.11	-1
0	411463	35.21	-1
0	412670	35.31	-1
0	413877	35.41	-1
0	415084	35.51	-1
0	416291	35.61	-1
0	417498	35.71	-1
0	418705	35.81	-1
0	419912	35.91	-1
0	421131	36.01	-1
0	422338	36.11	-1
0	423545	36.21	-1
0	424752	36.31	-1
0	426092	36.41	-1
0	427298	36.51	-1
0	428504	36.61	-1
0	429710	36.71	-1
0	430916	36.81	-1
0	432122	36.91	-1
0	433340	37.01	-1
0	434546	37.11	-1
0	435752	37.21	-1
0	436958	37.31	-1
0	438164	37.41	-1
0	439370	37.51	-1
0	440576	37.61	-1
0	441782	37.71	-1
0	442988	37.81	-1
0	444194	37.91	-1
0	445412	38.01	-1
0	446618	38.11	-1
0	447824	38.21	-1
0	449030	38.31	-1
0	450236	38.41	-1
0	451442	38.51	-1
0	452648	38.61	-1
0	453854	38.71	-1
0	455060	38.81	-1
0	456266	38.91	-1
0	457484	39.01	-1
0	458690	39.11	-1
0	459896	39.21	-1
0	461102	39.31	-1
0	462308	39.41	-1
0	463514	39.51	-1
0	464720	39.61	-1
0	465926	39.71	-1
0	467132	39.81	-1
0	468338	39.91	-1
0	469556	40.01	-1
0	470762	40.11	-1
0	471968	40.21	-1
0	473174	40.31	-1
0	474380	40.41	-1
0	475586	40.51	-1
0	476792	40.61	-1
0	477998	40.71	-1
0	479204	40.81	-1
0	480410	40.91	-1
0	481628	41.01	-1
0	482834	41.11	-1
0	484040	41.21	-1
0	485246	41.31	-1
0	486452	41.41	-1
0	487791	41.51	-1
0	488996	41.61	-1
0	490201	41.71	-1
0	491406	41.81	-1
0	492611	41.91	-1
0	493828	42.01	-1
0	495033	42.11	-1
0	496238	42.21	-1
0	497443	42.31	-1
0	498648	42.41	-1
0	499853	42.51	-1
0	501058	42.61	-1
0	502263	42.71	-1
0	503468	42.81	-1
0	504673	42.91	-1
0	505890	43.01	-1
0	507095	43.11	-1
0	508300	43.21	-1
0	509505	43.31	-1
0	510710	43.41	-1
0	511915	43.51	-1
0	513120	43.61	-1
0	514325	43.71	-1
0	515530	43.81	-1
0	516735	43.91	-1
0	517952	44.01	-1
0	519157	44.11	-1
0	520362	44.21	-1
0	521567	44.31	-1
0	522772	44.41	-1
0	523977	44.51	-1
0	525182	44.61	-1
0	526387	44.71	-1
0	527592	44.81	-1
0	528797	44.91	-1
0	530014	45.01	-1
0	531219	45.11	-1
0	532424	45.21	-1
0	533629	45.31	-1
0	534834	45.41	-1
0	536039	45.51	-1
0	537244	45.61	-1
0	538449	45.71	-1
0	539654	45.81	-1
0	540859	45.91	-1
0	542209	46.01	-1
0	543413	46.11	-1
0	544750	46.21	-1
0	545953	46.31	-1
0	547156	46.41	-1
0	548359	46.51	-1
0	549562	46.61	-1
0	550765	46.71	-1
0	551968	46.81	-1
0	553171	46.91	-1
0	554386	47.01	-1
0	555589	47.11	-1
0	556792	47.21	-1
0	557995	47.31	-1
0	559198	47.41	-1
0	560401	47.51	-1
0	561604	47.61	-1
0	562807	47.71	-1
0	564010	47.81	-1
0	565213	47.91	-1
0	566428	48.01	-1
0	567631	48.11	-1
0	568834	48.21	-1
0	570037	48.31	-1
0	571240	48.41	-1
0	572443	48.51	-1
0	573646	48.61	-1
0	574849	48.71	-1
0	576052	48.81	-1
0	577255	48.91	-1
0	578470	49.01	-1
0	579673	49.11	-1
0	580876	49.21	-1
0	582079	49.31	-1
0	583282	49.41	-1
0	584485	49.51	-1
0	585688	49.61	-1
0	586891	49.71	-1
0	588094	49.81	-1
0	589297	49.91	-1
0	590512	50.01	-1
0	591715	50.11	-1
0	592918	50.21	-1
0	594121	50.31	-1
0	595324	50.41	-1
0	596527	50.51	-1
0	597730	50.61	-1
0	599066	50.71	-1
0	600268	50.81	-1
0	601470	50.91	-1
0	602684	51.01	-1
0	603886	51.11	-1
0	605088	51.21	-1
0	606290	51.31	-1
0	607492	51.41	-1
0	608694	51.51	-1
0	609896	51.61	-1
0	611098	51.71	-1
0	612300	51.81	-1
0	613502	51.91	-1
0	614716	52.01	-1
0	616051	52.11	-1
0	617252	52.21	-1
0	618453	52.31	-1
0	619654	52.41	-1
0	620855	52.51	-1
0	622056	52.61	-1
0	623257	52.71	-1
0	624458	52.81	-1
0	625659	52.91	-1
0	626872	53.01	-1
0	628073	53.11	-1
0	629274	53.21	-1
0	630475	53.31	-1
0	631676	53.41	-1
0	632877	53.51	-1
0	634078	53.61	-1
0	635279	53.71	-1
0	636480	53.81	-1
0	637681	53.91	-1
0	638894	54.01	-1
0	640095	54.11	-1
0	641296	54.21	-1
0	642497	54.31	-1
0	643698	54.41	-1
0	644899	54.51	-1
0	646100	54.61	-1
0	647301	54.71	-1
0	648502	54.81	-1
0	649703	54.91	-1
0	650916	55.01	-1
0	652117	55.11	-1
0	653318	55.21	-1
0	654519	55.31	-1
0	655720	55.41	-1
0	656921	55.51	-1
0	658122	55.61	-1
0	659323	55.71	-1
0	660524	55.81	-1
0	661725	55.91	-1
0	662938	56.01	-1
0	664139	56.11	-1
0	665340	56.21	-1
0	666541	56.31	-1
0	667742	56.41	-1
0	668943	56.51	-1
0	670144	56.61	-1
0	671345	56.71	-1
0	672546	56.81	-1
0	673747	56.91	-1
0	674960	57.01	-1
0	676161	57.11	-1
0	677362	57.21	-1
0	678563	57.31	-1
0	679764	57.41	-1
0	681098	57.51	-1
0	682298	57.61	-1
0	683498	57.71	-1
0	684698	57.81	-1
0	685898	57.91	-1
0	687110	58.01	-1
0	688310	58.11	-1
0	689510	58.21	-1
0	690710	58.31	-1
0	691910	58.41	-1
0	693110	58.51	-1
0	694310	58.61	-1
0	695510	58.71	-1
0	696710	58.81	-1
0	697910	58.91	-1
0	699122	59.01	-1
0	700322	59.11	-1
0	701522	59.21	-1
0	702722	59.31	-1
0	703922	59.41	-1
0	705122	59.51	-1
0	706322	59.61	-1
0	707522	59.71	-1
0	708722	59.81	-1
0	709922	59.91	-1
0	711134	60.01	-1
0	712334	60.11	-1
0	713534	60.21	-1
0	714734	60.31	-1
0	715934	60.41	-1
0	717134	60.51	-1
0	718334	60.61	-1
0	719534	60.71	-1
0	720734	60.81	-1
0	721934	60.91	-1
0	723146	61.01	-1
0	724346	61.11	-1
0	725546	61.21	-1
0	726746	61.31	-1
0	727946	61.41	-1
0	729146	61.51	-1
0	730346	61.61	-1
0	731546	61.71	-1
0	732746	61.81	-1
0	733946	61.91	-1
0	735158	62.01	-1
0	736358	62.11	-1
0	737558	62.21	-1
0	738758	62.31	-1
0	739958	62.41	-1
0	741158	62.51	-1
0	742491	62.61	-1
0	743690	62.71	-1
0	744889	62.81	-1
0	746088	62.91	-1
0	747299	63.01	-1
0	748498	63.11	-1
0	749697	63.21	-1
0	750896	63.31	-1
0	752095	63.41	-1
0	753294	63.51	-1
0	754493	63.61	-1
0	755692	63.71	-1
0	756891	63.81	-1
0	758090	63.91	-1
0	759301	64.01	-1
0	760500	64.11	-1
0	761699	64.21	-1
0	762898	64.31	-1
0	764097	64.41	-1
0	765296	64.51	-1
0	766495	64.61	-1
0	767694	64.71	-1
0	768893	64.81	-1
0	770092	64.91	-1
0	771303	65.01	-1
0	772502	65.11	-1
0	773701	65.21	-1
0	774900	65.31	-1
0	776099	65.41	-1
0	777298	65.51	-1
0	778497	65.61	-1
0	779696	65.71	-1
0	780895	65.81	-1
0	782094	65.91	-1
0	783305	66.01	-1
0	784504	66.11	-1
0	785703	66.21	-1
0	786902	66.31	-1
0	788101	66.41	-1
0	789300	66.51	-1
0	790499	66.61	-1
0	791698	66.71	-1
0	792897	66.81	-1
0	794096	66.91	-1
0	795307	67.01	-1
0	796506	67.11	-1
0	797705	67.21	-1
0	798904	67.31	-1
0	800103	67.41	-1
0	802100	67.51	-1
0	803298	67.61	-1
0	804496	67.71	-1
0	805694	67.81	-1
0	806892	67.91	-1
0	808102	68.01	-1
0	809300	68.11	-1
0	810498	68.21	-1
0	811696	68.31	-1
0	812894	68.41	-1
0	814092	68.51	-1
0	815290	68.61	-1
0	816488	68.71	-1
0	817686	68.81	-1
0	818884	68.91	-1
0	820094	69.01	-1
0	821292	69.11	-1
0	822490	69.21	-1
0	823688	69.31	-1
0	824886	69.41	-1
0	826084	69.51	-1
0	827282	69.61	-1
0	828480	69.71	-1
0	829678	69.81	-1
0	830876	69.91	-1
0	832086	70.01	-1
0	833284	70.11	-1
0	834482	70.21	-1
0	835680	70.31	-1
0	836878	70.41	-1
0	838076	70.51	-1
0	839274	70.61	-1
0	840472	70.71	-1
0	841670	70.81	-1
0	842868	70.91	-1
0	844078	71.01	-1
0	845276	71.11	-1
0	846474	71.21	-1
0	847672	71.31	-1
0	848870	71.41	-1
0	850068	71.51	-1
0	851266	71.61	-1
0	852464	71.71	-1
0	853662	71.81	-1
0	854860	71.91	-1
0	856070	72.01	-1
0	857268	72.11	-1
0	858466	72.21	-1
0	859664	72.31	-1
0	860862	72.41	-1
0	862060	72.51	-1
0	863258	72.61	-1
0	864456	72.71	-1
0	865654	72.81	-1
0	866852	72.91	-1
0	868062	73.01	-1
0	869260	73.11	-1
0	870458	73.21	-1
0	871656	73.31	-1
0	872854	73.41	-1
0	874052	73.51	-1
0	875250	73.61	-1
0	876448	73.71	-1
0	877646	73.81	-1
0	878844	73.91	-1
0	880054	74.01	-1
0	881252	74.11	-1
0	882450	74.21	-1
0	883648	74.31	-1
0	884846	74.41	-1
0	886044	74.51	-1
0	887242	74.61	-1
0	888440	74.71	-1
0	889638	74.81	-1
0	890836	74.91	-1
0	892046	75.01	-1
0	893244	75.11	-1
0	894442	75.21	-1
0	895640	75.31	-1
0	896838	75.41	-1
0	898036	75.51	-1
0	899234	75.61	-1
0	900432	75.71	-1
0	901630	75.81	-1
0	902828	75.91	-1
0	904038	76.01	-1
0	905236	76.11	-1
0	906434	76.21	-1
0	907632	76.31	-1
0	908830	76.41	-1
0	910028	76.51	-1
0	911226	76.61	-1
0	912424	76.71	-1
0	913622	76.81	-1
0	914820	76.91	-1
0	916030	77.01	-1
0	917228	77.11	-1
0	918426	77.21	-1
0	919624	77.31	-1
0	920822	77.41	-1
0	922020	77.51	-1
0	923218	77.61	-1
0	924416	77.71	-1
0	925614	77.81	-1
0	926812	77.91	-1
0	928022	78.01	-1
0	929220	78.11	-1
0	930418	78.21	-1
0	931616	78.31	-1
0	932814	78.41	-1
0	934012	78.51	-1
0	935210	78.61	-1
0	936408	78.71	-1
0	937606	78.81	-1
0	938804	78.91	-1
0	940014	79.01	-1
0	941212	79.11	-1
0	942410	79.21	-1
0	943608	79.31	-1
0	944806	79.41	-1
0	946004	79.51	-1
0	947202	79.61	-1
0	948400	79.71	-1
0	949598	79.81	-1
0	950796	79.91	-1
0	952006	80.01	-1
0	953204	80.11	-1
0	954402	80.21	-1
0	955600	80.31	-1
0	956798	80.41	-1
0	957996	80.51	-1
0	959194	80.61	-1
0	960392	80.71	-1
0	961590	80.81	-1
0	962788	80.91	-1
0	963998	81.01	-1
0	965196	81.11	-1
0	966394	81.21	-1
0	967592	81.31	-1
0	968790	81.41	-1
0	969988	81.51	-1
0	971186	81.61	-1
0	972384	81.71	-1
0	973582	81.81	-1
0	974780	81.91	-1
0	975990	82.01	-1
0	977188	82.11	-1
0	978386	82.21	-1
0	979584	82.31	-1
0	980782	82.41	-1
0	981980	82.51	-1
0	983178	82.61	-1
0	984376	82.71	-1
0	985574	82.81	-1
0	986772	82.91	-1
0	987982	83.01	-1
0	989180	83.11	-1
0	990378	83.21	-1
0	991576	83.31	-1
0	992774	83.41	-1
0	993972	83.51	-1
0	995170	83.61	-1
0	996368	83.71	-1
0	997566	83.81	-1
0	998764	83.91	-1
0	999974	84.01	-1
0	1001172	84.11	-1
0	1002370	84.21	-1
0	1003568	84.31	-1
0	1004766	84.41	-1
0	1005964	84.51	-1
0	1007162	84.61	-1
0	1008360	84.71	-1
0	1009558	84.81	-1
0	1010756	84.91	-1
0	1011966	85.01	-1
0	1013164	85.11	-1
0	1014362	85.21	-1
0	1015560	85.31	-1
0	1016758	85.41	-1
0	1017956	85.51	-1
0	1019154	85.61	-1
0	1020352	85.71	-1
0	1021550	85.81	-1
0	1022748	85.91	-1
0	1023958	86.01	-1
0	1025156	86.11	-1
0	1026354	86.21	-1
0	1027552	86.31	-1
0	1028750	86.41	-1
0	1029948	86.51	-1
0	1031146	86.61	-1
0	1032344	86.71	-1
0	1033542	86.81	-1
0	1034740	86.91	-1
0	1035950	87.01	-1
0	1037148	87.11	-1
0	1038346	87.21	-1
0	1039544	87.31	-1
0	1040742	87.41	-1
0	1041940	87.51	-1
0	1043138	87.61	-1
0	1044336	87.71	-1
0	1045534	87.81	-1
0	1046732	87.91	-1
0	1047942	88.01	-1
0	1049140	88.11	-1
0	1050338	88.21	-1
0	1051536	88.31	-1
0	1052734	88.41	-1
0	1053932	88.51	-1
0	1055130	88.61	-1
0	1056328	88.71	-1
0	1057526	88.81	-1
0	1058724	88.91	-1
0	1059934	89.01	-1
0	1061132	89.11	-1
0	1062330	89.21	-1
0	1063528	89.31	-1
0	1064726	89.41	-1
0	1065924	89.51	-1
0	1067122	89.61	-1
0	1068320	89.71	-1
0	1069518	89.81	-1
0	1070716	89.91	-1
0	1071926	90.01	-1
0	1073124	90.11	-1
0	1074322	90.21	-1
0	1075520	90.31	-1
0	1076718	90.41	-1
0	1077916	90.51	-1
0	1079114	90.61	-1
0	1080312	90.71	-1
0	1081510	90.81	-1
0	1082708	90.91	-1
0	1083918	91.01	-1
0	1085116	91.11	-1
0	1086314	91.21	-1
0	1087512	91.31	-1
0	1088710	91.41	-1
0	1089908	91.51	-1
0	1091106	91.61	-1
0	1092304	91.71	-1
0	1093502	91.81	-1
0	1094700	91.91	-1
0	1095910	92.01	-1
0	1097108	92.11	-1
0	1098306	92.21	-1
0	1099504	92.31	-1
0	1100702	92.41	-1
0	1101900	92.51	-1
0	1103098	92.61	-1
0	1104296	92.71	-1
0	1105494	92.81	-1
0	1106692	92.91	-1
0	1107902	93.01	-1
0	1109100	93.11	-1
0	1110298	93.21	-1
0	1111496	93.31	-1
0	1112694	93.41	-1
0	1113892	93.51	-1
0	1115090	93.61	-1
0	1116288	93.71	-1
0	1117486	93.81	-1
0	1118684	93.91	-1
0	1119894	94.01	-1
0	1121092	94.11	-1
0	1122290	94.21	-1
0	1123488	94.31	-1
0	1124686	94.41	-1
0	1125884	94.51	-1
0	1127082	94.61	-1
0	1128280	94.71	-1
0	1129478	94.81	-1
0	1130676	94.91	-1
0	1131886	95.01	-1
0	1133084	95.11	-1
0	1134282	95.21	-1
0	1135480	95.31	-1
0	1136678	95.41	-1
0	1137876	95.51	-1
0	1139074	95.61	-1
0	1140272	95.71	-1
0	1141470	95.81	-1
0	1142668	95.91	-1
0	1143878	96.01	-1
0	1145076	96.11	-1
0	1146274	96.21	-1
0	1147472	96.31	-1
0	1148670	96.41	-1
0	1149868	96.51	-1
0	1151066	96.61	-1
0	1152264	96.71	-1
0	1153462	96.81	-1
0	1154660	96.91	-1
0	1155870	97.01	-1
0	1157068	97.11	-1
0	1158266	97.21	-1
0	1159464	97.31	-1
0	1160662	97.41	-1
0	1161860	97.51	-1
0	1163058	97.61	-1
0	1164256	97.71	-1
0	1165454	97.81	-1
0	1166652	97.91	-1
0	1167862	98.01	-1
0	1169060	98.11	-1
0	1170258	98.21	-1
0	1171456	98.31	-1
0	1172654	98.41	-1
0	1173852	98.51	-1
0	1175050	98.61	-1
0	1176248	98.71	-1
0	1177446	98.81	-1
0	1178644	98.91	-1
0	1179854	99.01	-1
0	1181052	99.11	-1
0	1182250	99.21	-1
0	1183448	99.31	-1
0	1184646	99.41	-1
0	1185844	99.51	-1
0	1187042	99.61	-1
0	1188240	99.71	-1
0	1189438	99.81	-1
0	1190636	99.91	-1
1	113	1.11	0
1	1311	1.21	0
1	2509	1.31	0
1	3707	1.41	0
1	4905	1.51	0
1	6103	1.61	0
1	7301	1.71	0
1	8499	1.81	0
1	9697	1.91	0
1	10907	2.01	0
1	12105	2.11	0
1	13303	2.21	0
1	14501	2.31	0
1	15699	2.41	0
1	16897	2.51	0
1	18095	2.61	0
1	19293	2.71	0
1	20491	2.81	0
1	21689	2.91	0
1	22899	3.01	0
1	24097	3.11	0
1	25295	3.21	0
1	26493	3.31	0
1	27691	3.41	0
1	28889	3.51	0
1	30087	3.61	0
1	31285	3.71	0
1	32483	3.81	0
1	33681	3.91	0
1	34891	4.01	0
1	36089	4.11	0
1	37287	4.21	0
1	38485	4.31	0
1	39683	4.41	0
1	40881	4.51	0
1	42079	4.61	0
1	43277	4.71	0
1	44475	4.81	0
1	45673	4.91	0
1	46883	5.01	0
1	48081	5.11	0
1	49279	5.21	0
1	50477	5.31	0
1	51675	5.41	0
1	52873	5.51	0
1	54071	5.61	0
1	55269	5.71	0
1	56467	5.81	0
1	57665	5.91	0
1	58875	6.01	0
1	60073	6.11	0
1	61271	6.21	0
1	62469	6.31	0
1	63667	6.41	0
1	64865	6.51	0
1	66063	6.61	0
1	67261	6.71	0
1	68459	6.81	0
1	69657	6.91	0
1	70867	7.01	0
1	72065	7.11	0
1	73263	7.21	0
1	74461	7.31	0
1	75659	7.41	0
1	76857	7.51	0
1	78055	7.61	0
1	79253	7.71	0
1	80451	7.81	0
1	81649	7.91	0
1	82859	8.01	0
1	84057	8.11	0
1	85255	8.21	0
1	86453	8.31	0
1	87651	8.41	0
1	88849	8.51	0
1	90047	8.61	0
1	91245	8.71	0
1	92443	8.81	0
1	93641	8.91	0
1	94851	9.01	0
1	96049	9.11	0
1	97247	9.21	0
1	98445	9.31	0
1	99643	9.41	0
1	100841	9.51	0
1	102039	9.61	0
1	103237	9.71	0
1	104435	9.81	0
1	105633	9.91	0
1	106999	10.01	0
1	108206	10.11	0
1	109413	10.21	0
1	110620	10.31	0
1	111827	10.41	0
1	113034	10.51	0
1	114241	10.61	0
1	115448	10.71	0
1	116655	10.81	0
1	117862	10.91	0
1	119081	11.01	0
1	120288	11.11	0
1	121495	11.21	0
1	122702	11.31	0
1	123909	11.41	0
1	125116	11.51	0
1	126323	11.61	0
1	127530	11.71	0
1	128737	11.81	0
1	129944	11.91	0
1	131163	12.01	0
1	132370	12.11	0
1	133577	12.21	0
1	134784	12.31	0
1	135991	12.41	0
1	137198	12.51	0
1	138405	12.61	0
1	139612	12.71	0
1	140819	12.81	0
1	142026	12.91	0
1	143245	13.01	0
1	144452	13.11	0
1	145659	13.21	0
1	146866	13.31	0
1	148073	13.41	0
1	149280	13.51	0
1	150487	13.61	0
1	151694	13.71	0
1	152901	13.81	0
1	154108	13.91	0
1	155327	14.01	0
1	156534	14.11	0
1	157741	14.21	0
1	158948	14.31	0
1	160155	14.41	0
1	161362	14.51	0
1	162569	14.61	0
1	163776	14.71	0
1	164983	14.81	0
1	166190	14.91	0
1	167409	15.01	0
1	168616	15.11	0
1	169823	15.21	0
1	171030	15.31	0
1	172237	15.41	0
1	173444	15.51	0
1	174651	15.61	0
1	175858	15.71	0
1	177065	15.81	0
1	178272	15.91	0
1	179491	16.01	0
1	180698	16.11	0
1	181905	16.21	0
1	183112	16.31	0
1	184319	16.41	0
1	185526	16.51	0
1	186733	16.61	0
1	187940	16.71	0
1	189147	16.81	0
1	190354	16.91	0
1	191573	17.01	0
1	192780	17.11	0
1	193987	17.21	0
1	195194	17.31	0
1	196401	17.41	0
1	197608	17.51	0
1	198815	17.61	0
1	200022	17.71	0
1	201229	17.81	0
1	202436	17.91	0
1	203655	18.01	0
1	204862	18.11	0
1	206069	18.21	0
1	207276	18.31	0
1	208483	18.41	0
1	209690	18.51	0
1	210897	18.61	0
1	212104	18.71	0
1	213311	18.81	0
1	214518	18.91	0
1	215737	19.01	0
1	216944	19.11	0
1	218151	19.21	0
1	219358	19.31	0
1	220565	19.41	0
1	221772	19.51	0
1	222979	19.61	0
1	224186	19.71	0
1	225393	19.81	0
1	226600	19.91	0
1	227819	20.01	0
1	229026	20.11	0
1	230233	20.21	0
1	231440	20.31	0
1	232647	20.41	0
1	233854	20.51	0
1	235061	20.61	0
1	236268	20.71	0
1	237475	20.81	0
1	238682	20.91	0
1	239901	21.01	0
1	241108	21.11	0
1	242315	21.21	0
1	243522	21.31	0
1	244729	21.41	0
1	245936	21.51	0
1	247143	21.61	0
1	248350	21.71	0
1	249557	21.81	0
1	250764	21.91	0
1	251983	22.01	0
1	253190	22.11	0
1	254397	22.21	0
1	255604	22.31	0
1	256811	22.41	0
1	258018	22.51	0
1	259225	22.61	0
1	260432	22.71	0
1	261639	22.81	0
1	262846	22.91	0
1	264065	23.01	0
1	265272	23.11	0
1	266479	23.21	0
1	267686	23.31	0
1	268893	23.41	0
1	270100	23.51	0
1	271307	23.61	0
1	272514	23.71	0
1	273721	23.81	0
1	274928	23.91	0
1	276147	24.01	0
1	277354	24.11	0
1	278561	24.21	0
1	279768	24.31	0
1	280975	24.41	0
1	282182	24.51	0
1	283389	24.61	0
1	284596	24.71	0
1	285803	24.81	0
1	287010	24.91	0
1	288229	25.01	0
1	289436	25.11	0
1	290643	25.21	0
1	291850	25.31	0
1	293057	25.41	0
1	294264	25.51	0
1	295471	25.61	0
1	296678	25.71	0
1	297885	25.81	0
1	299092	25.91	0
1	300311	26.01	0
1	301518	26.11	0
1	302725	26.21	0
1	303932	26.31	0
1	305139	26.41	0
1	306346	26.51	0
1	307553	26.61	0
1	308760	26.71	0
1	309967	26.81	0
1	311174	26.91	0
1	312393	27.01	0
1	313600	27.11	0
1	314807	27.21	0
1	316014	27.31	0
1	317221	27.41	0
1	318428	27.51	0
1	319635	27.61	0
1	320842	27.71	0
1	322049	27.81	0
1	323256	27.91	0
1	324475	28.01	0
1	325682	28.11	0
1	326889	28.21	0
1	328096	28.31	0
1	329303	28.41	0
1	330510	28.51	0
1	331717	28.61	0
1	332924	28.71	0
1	334131	28.81	0
1	335338	28.91	0
1	336557	29.01	0
1	337764	29.11	0
1	338971	29.21	0
1	340178	29.31	0
1	341385	29.41	0
1	342592	29.51	0
1	343799	29.61	0
1	345006	29.71	0
1	346213	29.81	0
1	347420	29.91	0
1	348639	30.01	0
1	349846	30.11	0
1	351053	30.21	0
1	352260	30.31	0
1	353467	30.41	0
1	354674	30.51	0
1	355881	30.61	0
1	357088	30.71	0
1	358295	30.81	0
1	359502	30.91	0
1	360721	31.01	0
1	361928	31.11	0
1	363135	31.21	0
1	364342	31.31	0
1	365549	31.41	0
1	366756	31.51	0
1	367963	31.61	0
1	369170	31.71	0
1	370377	31.81	0
1	371584	31.91	0
1	372803	32.01	0
1	374010	32.11	0
1	375217	32.21	0
1	376424	32.31	0
1	377631	32.41	0
1	378838	32.51	0
1	380045	32.61	0
1	381252	32.71	0
1	382459	32.81	0
1	383666	32.91	0
1	384885	33.01	0
1	386092	33.11	0
1	387299	33.21	0
1	388506	33.31	0
1	389713	33.41	0
1	390920	33.51	0
1	392127	33.61	0
1	393334	33.71	0
1	394541	33.81	0
1	395748	33.91	0
1	396967	34.01	0
1	398174	34.11	0
1	399381	34.21	0
1	400588	34.31	0
1	401795	34.41	0
1	403002	34.51	0
1	404209	34.61	0
1	405416	34.71	0
1	406623	34.81	0
1	407830	34.91	0
1	409049	35.01	0
1	410256	35.11	0
1	411463	35.21	0
1	412670	35.31	0
1	413877	35.41	0
1	415084	35.51	0
1	416291	35.61	0
1	417498	35.71	0
1	418705	35.81	0
1	419912	35.91	0
1	421131	36.01	0
1	422338	36.11	0
1	423545	36.21	0
1	424752	36.31	0
1	426092	36.41	0
1	427298	36.51	0
1	428504	36.61	0
1	429710	36.71	0
1	430916	36.81	0
1	432122	36.91	0
1	433340	37.01	0
1	434546	37.11	0
1	435752	37.21	0
1	436958	37.31	0
1	438164	37.41	0
1	439370	37.51	0
1	440576	37.61	0
1	441782	37.71	0
1	442988	37.81	0
1	444194	37.91	0
1	445412	38.01	0
1	446618	38.11	0
1	447824	38.21	0
1	449030	38.31	0
1	450236	38.41	0
1	451442	38.51	0
1	452648	38.61	0
1	453854	38.71	0
1	455060	38.81	0
1	456266	38.91	0
1	457484	39.01	0
1	458690	39.11	0
1	459896	39.21	0
1	461102	39.31	0
1	462308	39.41	0
1	463514	39.51	0
1	464720	39.61	0
1	465926	39.71	0
1	467132	39.81	0
1	468338	39.91	0
1	469556	40.01	0
1	470762	40.11	0
1	471968	40.21	0
1	473174	40.31	0
1	474380	40.41	0
1	475586	40.51	0
1	476792	40.61	0
1	477998	40.71	0
1	479204	40.81	0
1	480410	40.91	0
1	481628	41.01	0
1	482834	41.11	0
1	484040	41.21	0
1	485246	41.31	0
1	486452	41.41	0
1	487791	41.51	0
1	488996	41.61	0
1	490201	41.71	0
1	491406	41.81	0
1	492611	41.91	0
1	493828	42.01	0
1	495033	42.11	0
1	496238	42.21	0
1	497443	42.31	0
1	498648	42.41	0
1	499853	42.51	0
1	501058	42.61	0
1	502263	42.71	0
1	503468	42.81	0
1	504673	42.91	0
1	505890	43.01	0
1	507095	43.11	0
1	508300	43.21	0
1	509505	43.31	0
1	510710	43.41	0
1	511915	43.51	0
1	513120	43.61	0
1	514325	43.71	0
1	515530	43.81	0
1	516735	43.91	0
1	517952	44.01	0
1	519157	44.11	0
1	520362	44.21	0
1	521567	44.31	0
1	522772	44.41	0
1	523977	44.51	0
1	525182	44.61	0
1	526387	44.71	0
1	527592	44.81	0
1	528797	44.91	0
1	530014	45.01	0
1	531219	45.11	0
1	532424	45.21	0
1	533629	45.31	0
1	534834	45.41	0
1	536039	45.51	0
1	537244	45.61	0
1	538449	45.71	0
1	539654	45.81	0
1	540859	45.91	0
1	542209	46.01	0
1	543413	46.11	0
1	544750	46.21	0
1	545953	46.31	0
1	547156	46.41	0
1	548359	46.51	0
1	549562	46.61	0
1	550765	46.71	0
1	551968	46.81	0
1	553171	46.91	0
1	554386	47.01	0
1	555589	47.11	0
1	556792	47.21	0
1	557995	47.31	0
1	559198	47.41	0
1	560401	47.51	0
1	561604	47.61	0
1	562807	47.71	0
1	564010	47.81	0
1	565213	47.91	0
1	566428	48.01	0
1	567631	48.11	0
1	568834	48.21	0
1	570037	48.31	0
1	571240	48.41	0
1	572443	48.51	0
1	573646	48.61	0
1	574849	48.71	0
1	576052	48.81	0
1	577255	48.91	0
1	578470	49.01	0
1	579673	49.11	0
1	580876	49.21	0
1	582079	49.31	0
1	583282	49.41	0
1	584485	49.51	0
1	585688	49.61	0
1	586891	49.71	0
1	588094	49.81	0
1	589297	49.91	0
1	590512	50.01	0
1	591715	50.11	0
1	592918	50.21	0
1	594121	50.31	0
1	595324	50.41	0
1	596527	50.51	0
1	597730	50.61	0
1	599066	50.71	0
1	600268	50.81	0
1	601470	50.91	0
1	602684	51.01	0
1	603886	51.11	0
1	605088	51.21	0
1	606290	51.31	0
1	607492	51.41	0
1	608694	51.51	0
1	609896	51.61	0
1	611098	51.71	0
1	612300	51.81	0
1	613502	51.91	0
1	614716	52.01	0
1	616051	52.11	0
1	617252	52.21	0
1	618453	52.31	0
1	619654	52.41	0
1	620855	52.51	0
1	622056	52.61	0
1	623257	52.71	0
1	624458	52.81	0
1	625659	52.91	0
1	626872	53.01	0
1	628073	53.11	0
1	629274	53.21	0
1	630475	53.31	0
1	631676	53.41	0
1	632877	53.51	0
1	634078	53.61	0
1	635279	53.71	0
1	636480	53.81	0
1	637681	53.91	0
1	638894	54.01	0
1	640095	54.11	0
1	641296	54.21	0
1	642497	54.31	0
1	643698	54.41	0
1	644899	54.51	0
1	646100	54.61	0
1	647301	54.71	0
1	648502	54.81	0
1	649703	54.91	0
1	650916	55.01	0
1	652117	55.11	0
1	653318	55.21	0
1	654519	55.31	0
1	655720	55.41	0
1	656921	55.51	0
1	658122	55.61	0
1	659323	55.71	0
1	660524	55.81	0
1	661725	55.91	0
1	662938	56.01	0
1	664139	56.11	0
1	665340	56.21	0
1	666541	56.31	0
1	667742	56.41	0
1	668943	56.51	0
1	670144	56.61	0
1	671345	56.71	0
1	672546	56.81	0
1	673747	56.91	0
1	674960	57.01	0
1	676161	57.11	0
1	677362	57.21	0
1	678563	57.31	0
1	679764	57.41	0
1	681098	57.51	0
1	682298	57.61	0
1	683498	57.71	0
1	684698	57.81	0
1	685898	57.91	0
1	687110	58.01	0
1	688310	58.11	0
1	689510	58.21	0
1	690710	58.31	0
1	691910	58.41	0
1	693110	58.51	0
1	694310	58.61	0
1	695510	58.71	0
1	696710	58.81	0
1	697910	58.91	0
1	699122	59.01	0
1	700322	59.11	0
1	701522	59.21	0
1	702722	59.31	0
1	703922	59.41	0
1	705122	59.51	0
1	706322	59.61	0
1	707522	59.71	0
1	708722	59.81	0
1	709922	59.91	0
1	711134	60.01	0
1	712334	60.11	0
1	713534	60.21	0
1	714734	60.31	0
1	715934	60.41	0
1	717134	60.51	0
1	718334	60.61	0
1	719534	60.71	0
1	720734	60.81	0
1	721934	60.91	0
1	723146	61.01	0
1	724346	61.11	0
1	725546	61.21	0
1	726746	61.31	0
1	727946	61.41	0
1	729146	61.51	0
1	730346	61.61	0
1	731546	61.71	0
1	732746	61.81	0
1	733946	61.91	0
1	735158	62.01	0
1	736358	62.11	0
1	737558	62.21	0
1	738758	62.31	0
1	739958	62.41	0
1	741158	62.51	0
1	742491	62.61	0
1	743690	62.71	0
1	744889	62.81	0
1	746088	62.91	0
1	747299	63.01	0
1	748498	63.11	0
1	749697	63.21	0
1	750896	63.31	0
1	752095	63.41	0
1	753294	63.51	0
1	754493	63.61	0
1	755692	63.71	0
1	756891	63.81	0
1	758090	63.91	0
1	759301	64.01	0
1	760500	64.11	0
1	761699	64.21	0
1	762898	64.31	0
1	764097	64.41	0
1	765296	64.51	0
1	766495	64.61	0
1	767694	64.71	0
1	768893	64.81	0
1	770092	64.91	0
1	771303	65.01	0
1	772502	65.11	0
1	773701	65.21	0
1	774900	65.31	0
1	776099	65.41	0
1	777298	65.51	0
1	778497	65.61	0
1	779696	65.71	0
1	780895	65.81	0
1	782094	65.91	0
1	783305	66.01	0
1	784504	66.11	0
1	785703	66.21	0
1	786902	66.31	0
1	788101	66.41	0
1	789300	66.51	0
1	790499	66.61	0
1	791698	66.71	0
1	792897	66.81	0
1	794096	66.91	0
1	795307	67.01	0
1	796506	67.11	0
1	797705	67.21	0
1	798904	67.31	0
1	800103	67.41	0
1	802100	67.51	0
1	803298	67.61	0
1	804496	67.71	0
1	805694	67.81	0
1	806892	67.91	0
1	808102	68.01	0
1	809300	68.11	0
1	810498	68.21	0
1	811696	68.31	0
1	812894	68.41	0
1	814092	68.51	0
1	815290	68.61	0
1	816488	68.71	0
1	817686	68.81	0
1	818884	68.91	0
1	820094	69.01	0
1	821292	69.11	0
1	822490	69.21	0
1	823688	69.31	0
1	824886	69.41	0
1	826084	69.51	0
1	827282	69.61	0
1	828480	69.71	0
1	829678	69.81	0
1	830876	69.91	0
1	832086	70.01	0
1	833284	70.11	0
1	834482	70.21	0
1	835680	70.31	0
1	836878	70.41	0
1	838076	70.51	0
1	839274	70.61	0
1	840472	70.71	0
1	841670	70.81	0
1	842868	70.91	0
1	844078	71.01	0
1	845276	71.11	0
1	846474	71.21	0
1	847672	71.31	0
1	848870	71.41	0
1	850068	71.51	0
1	851266	71.61	0
1	852464	71.71	0
1	853662	71.81	0
1	854860	71.91	0
1	856070	72.01	0
1	857268	72.11	0
1	858466	72.21	0
1	859664	72.31	0
1	860862	72.41	0
1	862060	72.51	0
1	863258	72.61	0
1	864456	72.71	0
1	865654	72.81	0
1	866852	72.91	0
1	868062	73.01	0
1	869260	73.11	0
1	870458	73.21	0
1	871656	73.31	0
1	872854	73.41	0
1	874052	73.51	0
1	875250	73.61	0
1	876448	73.71	0
1	877646	73.81	0
1	878844	73.91	0
1	880054	74.01	0
1	881252	74.11	0
1	882450	74.21	0
1	883648	74.31	0
1	884846	74.41	0
1	886044	74.51	0
1	887242	74.61	0
1	888440	74.71	0
1	889638	74.81	0
1	890836	74.91	0
1	892046	75.01	0
1	893244	75.11	0
1	894442	75.21	0
1	895640	75.31	0
1	896838	75.41	0
1	898036	75.51	0
1	899234	75.61	0
1	900432	75.71	0
1	901630	75.81	0
1	902828	75.91	0
1	904038	76.01	0
1	905236	76.11	0
1	906434	76.21	0
1	907632	76.31	0
1	908830	76.41	0
1	910028	76.51	0
1	911226	76.61	0
1	912424	76.71	0
1	913622	76.81	0
1	914820	76.91	0
1	916030	77.01	0
1	917228	77.11	0
1	918426	77.21	0
1	919624	77.31	0
1	920822	77.41	0
1	922020	77.51	0
1	923218	77.61	0
1	924416	77.71	0
1	925614	77.81	0
1	926812	77.91	0
1	928022	78.01	0
1	929220	78.11	0
1	930418	78.21	0
1	931616	78.31	0
1	932814	78.41	0
1	934012	78.51	0
1	935210	78.61	0
1	936408	78.71	0
1	937606	78.81	0
1	938804	78.91	0
1	940014	79.01	0
1	941212	79.11	0
1	942410	79.21	0
1	943608	79.31	0
1	944806	79.41	0
1	946004	79.51	0
1	947202	79.61	0
1	948400	79.71	0
1	949598	79.81	0
1	950796	79.91	0
1	952006	80.01	0
1	953204	80.11	0
1	954402	80.21	0
1	955600	80.31	0
1	956798	80.41	0
1	957996	80.51	0
1	959194	80.61	0
1	960392	80.71	0
1	961590	80.81	0
1	962788	80.91	0
1	963998	81.01	0
1	965196	81.11	0
1	966394	81.21	0
1	967592	81.31	0
1	968790	81.41	0
1	969988	81.51	0
1	971186	81.61	0
1	972384	81.71	0
1	973582	81.81	0
1	974780	81.91	0
1	975990	82.01	0
1	977188	82.11	0
1	978386	82.21	0
1	979584	82.31	0
1	980782	82.41	0
1	981980	82.51	0
1	983178	82.61	0
1	984376	82.71	0
1	985574	82.81	0
1	986772	82.91	0
1	987982	83.01	0
1	989180	83.11	0
1	990378	83.21	0
1	991576	83.31	0
1	992774	83.41	0
1	993972	83.51	0
1	995170	83.61	0
1	996368	83.71	0
1	997566	83.81	0
1	998764	83.91	0
1	999974	84.01	0
1	1001172	84.11	0
1	1002370	84.21	0
1	1003568	84.31	0
1	1004766	84.41	0
1	1005964	84.51	0
1	1007162	84.61	0
1	1008360	84.71	0
1	1009558	84.81	0
1	1010756	84.91	0
1	1011966	85.01	0
1	1013164	85.11	0
1	1014362	85.21	0
1	1015560	85.31	0
1	1016758	85.41	0
1	1017956	85.51	0
1	1019154	85.61	0
1	1020352	85.71	0
1	1021550	85.81	0
1	1022748	85.91	0
1	1023958	86.01	0
1	1025156	86.11	0
1	1026354	86.21	0
1	1027552	86.31	0
1	1028750	86.41	0
1	1029948	86.51	0
1	1031146	86.61	0
1	1032344	86.71	0
1	1033542	86.81	0
1	1034740	86.91	0
1	1035950	87.01	0
1	1037148	87.11	0
1	1038346	87.21	0
1	1039544	87.31	0
1	1040742	87.41	0
1	1041940	87.51	0
1	1043138	87.61	0
1	1044336	87.71	0
1	1045534	87.81	0
1	1046732	87.91	0
1	1047942	88.01	0
1	1049140	88.11	0
1	1050338	88.21	0
1	1051536	88.31	0
1	1052734	88.41	0
1	1053932	88.51	0
1	1055130	88.61	0
1	1056328	88.71	0
1	1057526	88.81	0
1	1058724	88.91	0
1	1059934	89.01	0
1	1061132	89.11	0
1	1062330	89.21	0
1	1063528	89.31	0
1	1064726	89.41	0
1	1065924	89.51	0
1	1067122	89.61	0
1	1068320	89.71	0
1	1069518	89.81	0
1	1070716	89.91	0
1	1071926	90.01	0
1	1073124	90.11	0
1	1074322	90.21	0
1	1075520	90.31	0
1	1076718	90.41	0
1	1077916	90.51	0
1	1079114	90.61	0
1	1080312	90.71	0
1	1081510	90.81	0
1	1082708	90.91	0
1	1083918	91.01	0
1	1085116	91.11	0
1	1086314	91.21	0
1	1087512	91.31	0
1	1088710	91.41	0
1	1089908	91.51	0
1	1091106	91.61	0
1	1092304	91.71	0
1	1093502	91.81	0
1	1094700	91.91	0
1	1095910	92.01	0
1	1097108	92.11	0
1	1098306	92.21	0
1	1099504	92.31	0
1	1100702	92.41	0
1	1101900	92.51	0
1	1103098	92.61	0
1	1104296	92.71	0
1	1105494	92.81	0
1	1106692	92.91	0
1	1107902	93.01	0
1	1109100	93.11	0
1	1110298	93.21	0
1	1111496	93.31	0
1	1112694	93.41	0
1	1113892	93.51	0
1	1115090	93.61	0
1	1116288	93.71	0
1	1117486	93.81	0
1	1118684	93.91	0
1	1119894	94.01	0
1	1121092	94.11	0
1	1122290	94.21	0
1	1123488	94.31	0
1	1124686	94.41	0
1	1125884	94.51	0
1	1127082	94.61	0
1	1128280	94.71	0
1	1129478	94.81	0
1	1130676	94.91	0
1	1131886	95.01	0
1	1133084	95.11	0
1	1134282	95.21	0
1	1135480	95.31	0
1	1136678	95.41	0
1	1137876	95.51	0
1	1139074	95.61	0
1	1140272	95.71	0
1	1141470	95.81	0
1	1142668	95.91	0
1	1143878	96.01	0
1	1145076	96.11	0
1	1146274	96.21	0
1	1147472	96.31	0
1	1148670	96.41	0
1	1149868	96.51	0
1	1151066	96.61	0
1	1152264	96.71	0
1	1153462	96.81	0
1	1154660	96.91	0
1	1155870	97.01	0
1	1157068	97.11	0
1	1158266	97.21	0
1	1159464	97.31	0
1	1160662	97.41	0
1	1161860	97.51	0
1	1163058	97.61	0
1	1164256	97.71	0
1	1165454	97.81	0
1	1166652	97.91	0
1	1167862	98.01	0
1	1169060	98.11	0
1	1170258	98.21	0
1	1171456	98.31	0
1	1172654	98.41	0
1	1173852	98.51	0
1	1175050	98.61	0
1	1176248	98.71	0
1	1177446	98.81	0
1	1178644	98.91	0
1	1179854	99.01	0
1	1181052	99.11	0
1	1182250	99.21	0
1	1183448	99.31	0
1	1184646	99.41	0
1	1185844	99.51	0
1	1187042	99.61	0
1	1188240	99.71	0
1	1189438	99.81	0
1	1190636	99.91	0
2	113	1.11	0
2	1311	1.21	0
2	2509	1.31	0
2	3707	1.41	0
2	4905	1.51	0
2	6103	1.61	0
2	7301	1.71	0
2	8499	1.81	0
2	9697	1.91	0
2	10907	2.01	0
2	12105	2.11	0
2	13303	2.21	0
2	14501	2.31	0
2	15699	2.41	0
2	16897	2.51	0
2	18095	2.61	0
2	19293	2.71	0
2	20491	2.81	0
2	21689	2.91	0
2	22899	3.01	0
2	24097	3.11	0
2	25295	3.21	0
2	26493	3.31	0
2	27691	3.41	0
2	28889	3.51	0
2	30087	3.61	0
2	31285	3.71	0
2	32483	3.81	0
2	33681	3.91	0
2	34891	4.01	0
2	36089	4.11	0
2	37287	4.21	0
2	38485	4.31	0
2	39683	4.41	0
2	40881	4.51	0
2	42079	4.61	0
2	43277	4.71	0
2	44475	4.81	0
2	45673	4.91	0
2	46883	5.01	0
2	48081	5.11	0
2	49279	5.21	0
2	50477	5.31	0
2	51675	5.41	0
2	52873	5.51	0
2	54071	5.61	0
2	55269	5.71	0
2	56467	5.81	0
2	57665	5.91	0
2	58875	6.01	0
2	60073	6.11	0
2	61271	6.21	0
2	62469	6.31	0
2	63667	6.41	0
2	64865	6.51	0
2	66063	6.61	0
2	67261	6.71	0
2	68459	6.81	0
2	69657	6.91	0
2	70867	7.01	0
2	72065	7.11	0
2	73263	7.21	0
2	74461	7.31	0
2	75659	7.41	0
2	76857	7.51	0
2	78055	7.61	0
2	79253	7.71	0
2	80451	7.81	0
2	81649	7.91	0
2	82859	8.01	0
2	84057	8.11	0
2	85255	8.21	0
2	86453	8.31	0
2	87651	8.41	0
2	88849	8.51	0
2	90047	8.61	0
2	91245	8.71	0
2	92443	8.81	0
2	93641	8.91	0
2	94851	9.01	0
2	96049	9.11	0
2	97247	9.21	0
2	98445	9.31	0
2	99643	9.41	0
2	100841	9.51	0
2	102039	9.61	0
2	103237	9.71	0
2	104435	9.81	0
2	105633	9.91	0
2	106999	10.01	0
2	108206	10.11	0
2	109413	10.21	0
2	110620	10.31	0
2	111827	10.41	0
2	113034	10.51	0
2	114241	10.61	0
2	115448	10.71	0
2	116655	10.81	0
2	117862	10.91	0
2	119081	11.01	0
2	120288	11.11	0
2	121495	11.21	0
2	122702	11.31	0
2	123909	11.41	0
2	125116	11.51	0
2	126323	11.61	0
2	127530	11.71	0
2	128737	11.81	0
2	129944	11.91	0
2	131163	12.01	0
2	132370	12.11	0
2	133577	12.21	0
2	134784	12.31	0
2	135991	12.41	0
2	137198	12.51	0
2	138405	12.61	0
2	139612	12.71	0
2	140819	12.81	0
2	142026	12.91	0
2	143245	13.01	0
2	144452	13.11	0
2	145659	13.21	0
2	146866	13.31	0
2	148073	13.41	0
2	149280	13.51	0
2	150487	13.61	0
2	151694	13.71	0
2	152901	13.81	0
2	154108	13.91	0
2	155327	14.01	0
2	156534	14.11	0
2	157741	14.21	0
2	158948	14.31	0
2	160155	14.41	0
2	161362	14.51	0
2	162569	14.61	0
2	163776	14.71	0
2	164983	14.81	0
2	166190	14.91	0
2	167409	15.01	0
2	168616	15.11	0
2	169823	15.21	0
2	171030	15.31	0
2	172237	15.41	0
2	173444	15.51	0
2	174651	15.61	0
2	175858	15.71	0
2	177065	15.81	0
2	178272	15.91	0
2	179491	16.01	0
2	180698	16.11	0
2	181905	16.21	0
2	183112	16.31	0
2	184319	16.41	0
2	185526	16.51	0
2	186733	16.61	0
2	187940	16.71	0
2	189147	16.81	0
2	190354	16.91	0
2	191573	17.01	0
2	192780	17.11	0
2	193987	17.21	0
2	195194	17.31	0
2	196401	17.41	0
2	197608	17.51	0
2	198815	17.61	0
2	200022	17.71	0
2	201229	17.81	0
2	202436	17.91	0
2	203655	18.01	0
2	204862	18.11	0
2	206069	18.21	0
2	207276	18.31	0
2	208483	18.41	0
2	209690	18.51	0
2	210897	18.61	0
2	212104	18.71	0
2	213311	18.81	0
2	214518	18.91	0
2	215737	19.01	0
2	216944	19.11	0
2	218151	19.21	0
2	219358	19.31	0
2	220565	19.41	0
2	221772	19.51	0
2	222979	19.61	0
2	224186	19.71	0
2	225393	19.81	0
2	226600	19.91	0
2	227819	20.01	0
2	229026	20.11	0
2	230233	20.21	0
2	231440	20.31	0
2	232647	20.41	0
2	233854	20.51	0
2	235061	20.61	0
2	236268	20.71	0
2	237475	20.81	0
2	238682	20.91	0
2	239901	21.01	0
2	241108	21.11	0
2	242315	21.21	0
2	243522	21.31	0
2	244729	21.41	0
2	245936	21.51	0
2	247143	21.61	0
2	248350	21.71	0
2	249557	21.81	0
2	250764	21.91	0
2	251983	22.01	0
2	253190	22.11	0
2	254397	22.21	0
2	255604	22.31	0
2	256811	22.41	0
2	258018	22.51	0
2	259225	22.61	0
2	260432	22.71	0
2	261639	22.81	0
2	262846	22.91	0
2	264065	23.01	0
2	265272	23.11	0
2	266479	23.21	0
2	267686	23.31	0
2	268893	23.41	0
2	270100	23.51	0
2	271307	23.61	0
2	272514	23.71	0
2	273721	23.81	0
2	274928	23.91	0
2	276147	24.01	0
2	277354	24.11	0
2	278561	24.21	0
2	279768	24.31	0
2	280975	24.41	0
2	282182	24.51	0
2	283389	24.61	0
2	284596	24.71	0
2	285803	24.81	0
2	287010	24.91	0
2	288229	25.01	0
2	289436	25.11	0
2	290643	25.21	0
2	291850	25.31	0
2	293057	25.41	0
2	294264	25.51	0
2	295471	25.61	0
2	296678	25.71	0
2	297885	25.81	0
2	299092	25.91	0
2	300311	26.01	0
2	301518	26.11	0
2	302725	26.21	0
2	303932	26.31	0
2	305139	26.41	0
2	306346	26.51	0
2	307553	26.61	0
2	308760	26.71	0
2	309967	26.81	0
2	311174	26.91	0
2	312393	27.01	0
2	313600	27.11	0
2	314807	27.21	0
2	316014	27.31	0
2	317221	27.41	0
2	318428	27.51	0
2	319635	27.61	0
2	320842	27.71	0
2	322049	27.81	0
2	323256	27.91	0
2	324475	28.01	0
2	325682	28.11	0
2	326889	28.21	0
2	328096	28.31	0
2	329303	28.41	0
2	330510	28.51	0
2	331717	28.61	0
2	332924	28.71	0
2	334131	28.81	0
2	335338	28.91	0
2	336557	29.01	0
2	337764	29.11	0
2	338971	29.21	0
2	340178	29.31	0
2	341385	29.41	0
2	342592	29.51	0
2	343799	29.61	0
2	345006	29.71	0
2	346213	29.81	0
2	347420	29.91	0
2	348639	30.01	0
2	349846	30.11	0
2	351053	30.21	0
2	352260	30.31	0
2	353467	30.41	0
2	354674	30.51	0
2	355881	30.61	0
2	357088	30.71	0
2	358295	30.81	0
2	359502	30.91	0
2	360721	31.01	0
2	361928	31.11	0
2	363135	31.21	0
2	364342	31.31	0
2	365549	31.41	0
2	366756	31.51	0
2	367963	31.61	0
2	369170	31.71	0
2	370377	31.81	0
2	371584	31.91	0
2	372803	32.01	0
2	374010	32.11	0
2	375217	32.21	0
2	376424	32.31	0
2	377631	32.41	0
2	378838	32.51	0
2	380045	32.61	0
2	381252	32.71	0
2	382459	32.81	0
2	383666	32.91	0
2	384885	33.01	0
2	386092	33.11	0
2	387299	33.21	0
2	388506	33.31	0
2	389713	33.41	0
2	390920	33.51	0
2	392127	33.61	0
2	393334	33.71	0
2	394541	33.81	0
2	395748	33.91	0
2	396967	34.01	0
2	398174	34.11	0
2	399381	34.21	0
2	400588	34.31	0
2	401795	34.41	0
2	403002	34.51	0
2	404209	34.61	0
2	405416	34.71	0
2	406623	34.81	0
2	407830	34.91	0
2	409049	35.01	0
2	410256	35.11	0
2	411463	35.21	0
2	412670	35.31	0
2	413877	35.41	0
2	415084	35.51	0
2	416291	35.61	0
2	417498	35.71	0
2	418705	35.81	0
2	419912	35.91	0
2	421131	36.01	0
2	422338	36.11	0
2	423545	36.21	0
2	424752	36.31	0
2	426092	36.41	0
2	427298	36.51	0
2	428504	36.61	0
2	429710	36.71	0
2	430916	36.81	0
2	432122	36.91	0
2	433340	37.01	0
2	434546	37.11	0
2	435752	37.21	0
2	436958	37.31	0
2	438164	37.41	0
2	439370	37.51	0
2	440576	37.61	0
2	441782	37.71	0
2	442988	37.81	0
2	444194	37.91	0
2	445412	38.01	0
2	446618	38.11	0
2	447824	38.21	0
2	449030	38.31	0
2	450236	38.41	0
2	451442	38.51	0
2	452648	38.61	0
2	453854	38.71	0
2	455060	38.81	0
2	456266	38.91	0
2	457484	39.01	0
2	458690	39.11	0
2	459896	39.21	0
2	461102	39.31	0
2	462308	39.41	0
2	463514	39.51	0
2	464720	39.61	0
2	465926	39.71	0
2	467132	39.81	0
2	468338	39.91	0
2	469556	40.01	0
2	470762	40.11	0
2	471968	40.21	0
2	473174	40.31	0
2	474380	40.41	0
2	475586	40.51	0
2	476792	40.61	0
2	477998	40.71	0
2	479204	40.81	0
2	480410	40.91	0
2	481628	41.01	0
2	482834	41.11	0
2	484040	41.21	0
2	485246	41.31	0
2	486452	41.41	0
2	487791	41.51	0
2	488996	41.61	0
2	490201	41.71	0
2	491406	41.81	0
2	492611	41.91	0
2	493828	42.01	0
2	495033	42.11	0
2	496238	42.21	0
2	497443	42.31	0
2	498648	42.41	0
2	499853	42.51	0
2	501058	42.61	0
2	502263	42.71	0
2	503468	42.81	0
2	504673	42.91	0
2	505890	43.01	0
2	507095	43.11	0
2	508300	43.21	0
2	509505	43.31	0
2	510710	43.41	0
2	511915	43.51	0
2	513120	43.61	0
2	514325	43.71	0
2	515530	43.81	0
2	516735	43.91	0
2	517952	44.01	0
2	519157	44.11	0
2	520362	44.21	0
2	521567	44.31	0
2	522772	44.41	0
2	523977	44.51	0
2	525182	44.61	0
2	526387	44.71	0
2	527592	44.81	0
2	528797	44.91	0
2	530014	45.01	0
2	531219	45.11	0
2	532424	45.21	0
2	533629	45.31	0
2	534834	45.41	0
2	536039	45.51	0
2	537244	45.61	0
2	538449	45.71	0
2	539654	45.81	0
2	540859	45.91	0
2	542209	46.01	0
2	543413	46.11	0
2	544750	46.21	0
2	545953	46.31	0
2	547156	46.41	0
2	548359	46.51	0
2	549562	46.61	0
2	550765	46.71	0
2	551968	46.81	0
2	553171	46.91	0
2	554386	47.01	0
2	555589	47.11	0
2	556792	47.21	0
2	557995	47.31	0
2	559198	47.41	0
2	560401	47.51	0
2	561604	47.61	0
2	562807	47.71	0
2	564010	47.81	0
2	565213	47.91	0
2	566428	48.01	0
2	567631	48.11	0
2	568834	48.21	0
2	570037	48.31	0
2	571240	48.41	0
2	572443	48.51	0
2	573646	48.61	0
2	574849	48.71	0
2	576052	48.81	0
2	577255	48.91	0
2	578470	49.01	0
2	579673	49.11	0
2	580876	49.21	0
2	582079	49.31	0
2	583282	49.41	0
2	584485	49.51	0
2	585688	49.61	0
2	586891	49.71	0
2	588094	49.81	0
2	589297	49.91	0
2	590512	50.01	0
2	591715	50.11	0
2	592918	50.21	0
2	594121	50.31	0
2	595324	50.41	0
2	596527	50.51	0
2	597730	50.61	0
2	599066	50.71	0
2	600268	50.81	0
2	601470	50.91	0
2	602684	51.01	0
2	603886	51.11	0
2	605088	51.21	0
2	606290	51.31	0
2	607492	51.41	0
2	608694	51.51	0
2	609896	51.61	0
2	611098	51.71	0
2	612300	51.81	0
2	613502	51.91	0
2	614716	52.01	0
2	616051	52.11	0
2	617252	52.21	0
2	618453	52.31	0
2	619654	52.41	0
2	620855	52.51	0
2	622056	52.61	0
2	623257	52.71	0
2	624458	52.81	0
2	625659	52.91	0
2	626872	53.01	0
2	628073	53.11	0
2	629274	53.21	0
2	630475	53.31	0
2	631676	53.41	0
2	632877	53.51	0
2	634078	53.61	0
2	635279	53.71	0
2	636480	53.81	0
2	637681	53.91	0
2	638894	54.01	0
2	640095	54.11	0
2	641296	54.21	0
2	642497	54.31	0
2	643698	54.41	0
2	644899	54.51	0
2	646100	54.61	0
2	647301	54.71	0
2	648502	54.81	0
2	649703	54.91	0
2	650916	55.01	0
2	652117	55.11	0
2	653318	55.21	0
2	654519	55.31	0
2	655720	55.41	0
2	656921	55.51	0
2	658122	55.61	0
2	659323	55.71	0
2	660524	55.81	0
2	661725	55.91	0
2	662938	56.01	0
2	664139	56.11	0
2	665340	56.21	0
2	666541	56.31	0
2	667742	56.41	0
2	668943	56.51	0
2	670144	56.61	0
2	671345	56.71	0
2	672546	56.81	0
2	673747	56.91	0
2	674960	57.01	0
2	676161	57.11	0
2	677362	57.21	0
2	678563	57.31	0
2	679764	57.41	0
2	681098	57.51	0
2	682298	57.61	0
2	683498	57.71	0
2	684698	57.81	0
2	685898	57.91	0
2	687110	58.01	0
2	688310	58.11	0
2	689510	58.21	0
2	690710	58.31	0
2	691910	58.41	0
2	693110	58.51	0
2	694310	58.61	0
2	695510	58.71	0
2	696710	58.81	0
2	697910	58.91	0
2	699122	59.01	0
2	700322	59.11	0
2	701522	59.21	0
2	702722	59.31	0
2	703922	59.41	0
2	705122	59.51	0
2	706322	59.61	0
2	707522	59.71	0
2	708722	59.81	0
2	709922	59.91	0
2	711134	60.01	0
2	712334	60.11	0
2	713534	60.21	0
2	714734	60.31	0
2	715934	60.41	0
2	717134	60.51	0
2	718334	60.61	0
2	719534	60.71	0
2	720734	60.81	0
2	721934	60.91	0
2	723146	61.01	0
2	724346	61.11	0
2	725546	61.21	0
2	726746	61.31	0
2	727946	61.41	0
2	729146	61.51	0
2	730346	61.61	0
2	731546	61.71	0
2	732746	61.81	0
2	733946	61.91	0
2	735158	62.01	0
2	736358	62.11	0
2	737558	62.21	0
2	738758	62.31	0
2	739958	62.41	0
2	741158	62.51	0
2	742491	62.61	0
2	743690	62.71	0
2	744889	62.81	0
2	746088	62.91	0
2	747299	63.01	0
2	748498	63.11	0
2	749697	63.21	0
2	750896	63.31	0
2	752095	63.41	0
2	753294	63.51	0
2	754493	63.61	0
2	755692	63.71	0
2	756891	63.81	0
2	758090	63.91	0
2	759301	64.01	0
2	760500	64.11	0
2	761699	64.21	0
2	762898	64.31	0
2	764097	64.41	0
2	765296	64.51	0
2	766495	64.61	0
2	767694	64.71	0
2	768893	64.81	0
2	770092	64.91	0
2	771303	65.01	0
2	772502	65.11	0
2	773701	65.21	0
2	774900	65.31	0
2	776099	65.41	0
2	777298	65.51	0
2	778497	65.61	0
2	779696	65.71	0
2	780895	65.81	0
2	782094	65.91	0
2	783305	66.01	0
2	784504	66.11	0
2	785703	66.21	0
2	786902	66.31	0
2	788101	66.41	0
2	789300	66.51	0
2	790499	66.61	0
2	791698	66.71	0
2	792897	66.81	0
2	794096	66.91	0
2	795307	67.01	0
2	796506	67.11	0
2	797705	67.21	0
2	798904	67.31	0
2	800103	67.41	0
2	802100	67.51	0
2	803298	67.61	0
2	804496	67.71	0
2	805694	67.81	0
2	806892	67.91	0
2	808102	68.01	0
2	809300	68.11	0
2	810498	68.21	0
2	811696	68.31	0
2	812894	68.41	0
2	814092	68.51	0
2	815290	68.61	0
2	816488	68.71	0
2	817686	68.81	0
2	818884	68.91	0
2	820094	69.01	0
2	821292	69.11	0
2	822490	69.21	0
2	823688	69.31	0
2	824886	69.41	0
2	826084	69.51	0
2	827282	69.61	0
2	828480	69.71	0
2	829678	69.81	0
2	830876	69.91	0
2	832086	70.01	0
2	833284	70.11	0
2	834482	70.21	0
2	835680	70.31	0
2	836878	70.41	0
2	838076	70.51	0
2	839274	70.61	0
2	840472	70.71	0
2	841670	70.81	0
2	842868	70.91	0
2	844078	71.01	0
2	845276	71.11	0
2	846474	71.21	0
2	847672	71.31	0
2	848870	71.41	0
2	850068	71.51	0
2	851266	71.61	0
2	852464	71.71	0
2	853662	71.81	0
2	854860	71.91	0
2	856070	72.01	0
2	857268	72.11	0
2	858466	72.21	0
2	859664	72.31	0
2	860862	72.41	0
2	862060	72.51	0
2	863258	72.61	0
2	864456	72.71	0
2	865654	72.81	0
2	866852	72.91	0
2	868062	73.01	0
2	869260	73.11	0
2	870458	73.21	0
2	871656	73.31	0
2	872854	73.41	0
2	874052	73.51	0
2	875250	73.61	0
2	876448	73.71	0
2	877646	73.81	0
2	878844	73.91	0
2	880054	74.01	0
2	881252	74.11	0
2	882450	74.21	0
2	883648	74.31	0
2	884846	74.41	0
2	886044	74.51	0
2	887242	74.61	0
2	888440	74.71	0
2	889638	74.81	0
2	890836	74.91	0
2	892046	75.01	0
2	893244	75.11	0
2	894442	75.21	0
2	895640	75.31	0
2	896838	75.41	0
2	898036	75.51	0
2	899234	75.61	0
2	900432	75.71	0
2	901630	75.81	0
2	902828	75.91	0
2	904038	76.01	0
2	905236	76.11	0
2	906434	76.21	0
2	907632	76.31	0
2	908830	76.41	0
2	910028	76.51	0
2	911226	76.61	0
2	912424	76.71	0
2	913622	76.81	0
2	914820	76.91	0
2	916030	77.01	0
2	917228	77.11	0
2	918426	77.21	0
2	919624	77.31	0
2	920822	77.41	0
2	922020	77.51	0
2	923218	77.61	0
2	924416	77.71	0
2	925614	77.81	0
2	926812	77.91	0
2	928022	78.01	0
2	929220	78.11	0
2	930418	78.21	0
2	931616	78.31	0
2	932814	78.41	0
2	934012	78.51	0
2	935210	78.61	0
2	936408	78.71	0
2	937606	78.81	0
2	938804	78.91	0
2	940014	79.01	0
2	941212	79.11	0
2	942410	79.21	0
2	943608	79.31	0
2	944806	79.41	0
2	946004	79.51	0
2	947202	79.61	0
2	948400	79.71	0
2	949598	79.81	0
2	950796	79.91	0
2	952006	80.01	0
2	953204	80.11	0
2	954402	80.21	0
2	955600	80.31	0
2	956798	80.41	0
2	957996	80.51	0
2	959194	80.61	0
2	960392	80.71	0
2	961590	80.81	0
2	962788	80.91	0
2	963998	81.01	0
2	965196	81.11	0
2	966394	81.21	0
2	967592	81.31	0
2	968790	81.41	0
2	969988	81.51	0
2	971186	81.61	0
2	972384	81.71	0
2	973582	81.81	0
2	974780	81.91	0
2	975990	82.01	0
2	977188	82.11	0
2	978386	82.21	0
2	979584	82.31	0
2	980782	82.41	0
2	981980	82.51	0
2	983178	82.61	0
2	984376	82.71	0
2	985574	82.81	0
2	986772	82.91	0
2	987982	83.01	0
2	989180	83.11	0
2	990378	83.21	0
2	991576	83.31	0
2	992774	83.41	0
2	993972	83.51	0
2	995170	83.61	0
2	996368	83.71	0
2	997566	83.81	0
2	998764	83.91	0
2	999974	84.01	0
2	1001172	84.11	0
2	1002370	84.21	0
2	1003568	84.31	0
2	1004766	84.41	0
2	1005964	84.51	0
2	1007162	84.61	0
2	1008360	84.71	0
2	1009558	84.81	0
2	1010756	84.91	0
2	1011966	85.01	0
2	1013164	85.11	0
2	1014362	85.21	0
2	1015560	85.31	0
2	1016758	85.41	0
2	1017956	85.51	0
2	1019154	85.61	0
2	1020352	85.71	0
2	1021550	85.81	0
2	1022748	85.91	0
2	1023958	86.01	0
2	1025156	86.11	0
2	1026354	86.21	0
2	1027552	86.31	0
2	1028750	86.41	0
2	1029948	86.51	0
2	1031146	86.61	0
2	1032344	86.71	0
2	1033542	86.81	0
2	1034740	86.91	0
2	1035950	87.01	0
2	1037148	87.11	0
2	1038346	87.21	0
2	1039544	87.31	0
2	1040742	87.41	0
2	1041940	87.51	0
2	1043138	87.61	0
2	1044336	87.71	0
2	1045534	87.81	0
2	1046732	87.91	0
2	1047942	88.01	0
2	1049140	88.11	0
2	1050338	88.21	0
2	1051536	88.31	0
2	1052734	88.41	0
2	1053932	88.51	0
2	1055130	88.61	0
2	1056328	88.71	0
2	1057526	88.81	0
2	1058724	88.91	0
2	1059934	89.01	0
2	1061132	89.11	0
2	1062330	89.21	0
2	1063528	89.31	0
2	1064726	89.41	0
2	1065924	89.51	0
2	1067122	89.61	0
2	1068320	89.71	0
2	1069518	89.81	0
2	1070716	89.91	0
2	1071926	90.01	0
2	1073124	90.11	0
2	1074322	90.21	0
2	1075520	90.31	0
2	1076718	90.41	0
2	1077916	90.51	0
2	1079114	90.61	0
2	1080312	90.71	0
2	1081510	90.81	0
2	1082708	90.91	0
2	1083918	91.01	0
2	1085116	91.11	0
2	1086314	91.21	0
2	1087512	91.31	0
2	1088710	91.41	0
2	1089908	91.51	0
2	1091106	91.61	0
2	1092304	91.71	0
2	1093502	91.81	0
2	1094700	91.91	0
2	1095910	92.01	0
2	1097108	92.11	0
2	1098306	92.21	0
2	1099504	92.31	0
2	1100702	92.41	0
2	1101900	92.51	0
2	1103098	92.61	0
2	1104296	92.71	0
2	1105494	92.81	0
2	1106692	92.91	0
2	1107902	93.01	0
2	1109100	93.11	0
2	1110298	93.21	0
2	1111496	93.31	0
2	1112694	93.41	0
2	1113892	93.51	0
2	1115090	93.61	0
2	1116288	93.71	0
2	1117486	93.81	0
2	1118684	93.91	0
2	1119894	94.01	0
2	1121092	94.11	0
2	1122290	94.21	0
2	1123488	94.31	0
2	1124686	94.41	0
2	1125884	94.51	0
2	1127082	94.61	0
2	1128280	94.71	0
2	1129478	94.81	0
2	1130676	94.91	0
2	1131886	95.01	0
2	1133084	95.11	0
2	1134282	95.21	0
2	1135480	95.31	0
2	1136678	95.41	0
2	1137876	95.51	0
2	1139074	95.61	0
2	1140272	95.71	0
2	1141470	95.81	0
2	1142668	95.91	0
2	1143878	96.01	0
2	1145076	96.11	0
2	1146274	96.21	0
2	1147472	96.31	0
2	1148670	96.41	0
2	1149868	96.51	0
2	1151066	96.61	0
2	1152264	96.71	0
2	1153462	96.81	0
2	1154660	96.91	0
2	1155870	97.01	0
2	1157068	97.11	0
2	1158266	97.21	0
2	1159464	97.31	0
2	1160662	97.41	0
2	1161860	97.51	0
2	1163058	97.61	0
2	1164256	97.71	0
2	1165454	97.81	0
2	1166652	97.91	0
2	1167862	98.01	0
2	1169060	98.11	0
2	1170258	98.21	0
2	1171456	98.31	0
2	1172654	98.41	0
2	1173852	98.51	0
2	1175050	98.61	0
2	1176248	98.71	0
2	1177446	98.81	0
2	1178644	98.91	0
2	1179854	99.01	0
2	1181052	99.11	0
2	1182250	99.21	0
2	1183448	99.31	0
2	1184646	99.41	0
2	1185844	99.51	0
2	1187042	99.61	0
2	1188240	99.71	0
2	1189438	99.81	0
2	1190636	99.91	0
3	113	1.11	-0.000716383
3	1311	1.21	-0.00136341
3	2509	1.31	-0.00186974
3	3707	1.41	-0.00225157
3	4905	1.51	-0.00252443
3	6103	1.61	-0.00270298
3	7301	1.71	-0.00280098
3	8499	1.81	-0.00283113
3	9697	1.91	-0.00280509
3	10907	2.01	-0.00273342
3	12105	2.11	-0.00262559
3	13303	2.21	-0.00249005
3	14501	2.31	-0.00233419
3	15699	2.41	-0.00216447
3	16897	2.51	-0.00198642
3	18095	2.61	-0.00180472
3	19293	2.71	-0.0016233
3	20491	2.81	-0.00144536
3	21689	2.91	-0.00127346
3	22899	3.01	-0.0011096
3	24097	3.11	-0.000955278
3	25295	3.21	-0.000811546
3	26493	3.31	-0.00067908
3	27691	3.41	-0.000558232
3	28889	3.51	-0.000449082
3	30087	3.61	-0.000351487
3	31285	3.71	-0.00026512
3	32483	3.81	-0.000189514
3	33681	3.91	-0.000124092
3	34891	4.01	-6.81972e-05
3	36089	4.11	-2.11209e-05
3	37287	4.21	1.78769e-05
3	38485	4.31	4.9548e-05
3	39683	4.41	7.46407e-05
3	40881	4.51	9.38867e-05
3	42079	4.61	0.000107991
3	43277	4.71	0.000117625
3	44475	4.81	0.000123418
3	45673	4.91	0.000125957
3	46883	5.01	0.000125781
3	48081	5.11	0.00012338
3	49279	5.21	0.000119198
3	50477	5.31	0.000113629
3	51675	5.41	0.000107022
3	52873	5.51	9.96832e-05
3	54071	5.61	9.18747e-05
3	55269	5.71	8.38211e-05
3	56467	5.81	7.57109e-05
3	57665	5.91	6.76999e-05
3	58875	6.01	5.99137e-05
3	60073	6.11	5.24518e-05
3	61271	6.21	4.53896e-05
3	62469	6.31	3.87821e-05
3	63667	6.41	3.2666e-05
3	64865	6.51	2.70628e-05
3	66063	6.61	2.19809e-05
3	67261	6.71	1.74176e-05
3	68459	6.81	1.33618e-05
3	69657	6.91	9.79494e-06
3	70867	7.01	6.6932e-06
3	72065	7.11	4.02864e-06
3	73263	7.21	1.77051e-06
3	74461	7.31	-1.13691e-07
3	75659	7.41	-1.65736e-06
3	76857	7.51	-2.89397e-06
3	78055	7.61	-3.85652e-06
3	79253	7.71	-4.57698e-06
3	80451	7.81	-5.08591e-06
3	81649	7.91	-5.41219e-06
3	82859	8.01	-5.58279e-06
3	84057	8.11	-5.6226e-06
3	85255	8.21	-5.55442e-06
3	86453	8.31	-5.39886e-06
3	87651	8.41	-5.17441e-06
3	88849	8.51	-4.89748e-06
3	90047	8.61	-4.58246e-06
3	91245	8.71	-4.24184e-06
3	92443	8.81	-3.88634e-06
3	93641	8.91	-3.52499e-06
3	94851	9.01	-3.16534e-06
3	96049	9.11	-2.81353e-06
3	97247	9.21	-2.47446e-06
3	98445	9.31	-2.15192e-06
3	99643	9.41	-1.84873e-06
3	100841	9.51	-1.56685e-06
3	102039	9.61	-1.30751e-06
3	103237	9.71	-1.0713e-06
3	104435	9.81	-8.58321e-07
3	105633	9.91	-6.68206e-07
3	106999	10.01	-5.0026e-07
3	108206	10.11	-3.53514e-07
3	109413	10.21	-2.2679e-07
3	110620	10.31	-1.18765e-07
3	111827	10.41	-2.80163e-08
3	113034	10.51	4.6931e-08
3	114241	10.61	1.07573e-07
3	115448	10.71	1.55391e-07
3	116655	10.81	1.91831e-07
3	117862	10.91	2.18284e-07
3	119081	11.01	2.3607e-07
3	120288	11.11	2.46427e-07
3	121495	11.21	2.50502e-07
3	122702	11.31	2.49353e-07
3	123909	11.41	2.43938e-07
3	125116	11.51	2.3512e-07
3	126323	11.61	2.23669e-07
3	127530	11.71	2.10264e-07
3	128737	11.81	1.95496e-07
3	129944	11.91	1.79874e-07
3	131163	12.01	1.63833e-07
3	132370	12.11	1.47736e-07
3	133577	12.21	1.3188e-07
3	134784	12.31	1.16508e-07
3	135991	12.41	1.01807e-07
3	137198	12.51	8.79222e-08
3	138405	12.61	7.49541e-08
3	139612	12.71	6.29711e-08
3	140819	12.81	5.20114e-08
3	142026	12.91	4.20883e-08
3	143245	13.01	3.3193e-08
3	144452	13.11	2.53003e-08
3	145659	13.21	1.83718e-08
3	146866	13.31	1.23581e-08
3	148073	13.41	7.20348e-09
3	149280	13.51	2.84537e-09
3	150487	13.61	-7.80886e-10
3	151694	13.71	-3.74136e-09
3	152901	13.81	-6.10285e-09
3	154108	13.91	-7.93072e-09
3	155327	14.01	-9.28821e-09
3	156534	14.11	-1.0235e-08
3	157741	14.21	-1.08283e-08
3	158948	14.31	-1.11211e-08
3	160155	14.41	-1.11612e-08
3	161362	14.51	-1.09946e-08
3	162569	14.61	-1.06599e-08
3	163776	14.71	-1.01945e-08
3	164983	14.81	-9.62999e-09
3	166190	14.91	-8.99405e-09
3	167409	15.01	-8.31086e-09
3	168616	15.11	-7.60103e-09
3	169823	15.21	-6.88338e-09
3	171030	15.31	-6.17071e-09
3	172237	15.41	-5.47544e-09
3	173444	15.51	-4.80682e-09
3	174651	15.61	-4.17266e-09
3	175858	15.71	-3.57687e-09
3	177065	15.81	-3.02443e-09
3	178272	15.91	-2.51674e-09
3	179491	16.01	-2.05489e-09
3	180698	16.11	-1.63958e-09
3	181905	16.21	-1.26903e-09
3	183112	16.31	-9.42535e-10
3	184319	16.41	-6.57963e-10
3	185526	16.51	-4.1247e-10
3	186733	16.61	-2.04636e-10
3	187940	16.71	-2.91323e-11
3	189147	16.81	1.14753e-10
3	190354	16.91	2.30926e-10
3	191573	17.01	3.22231e-10
3	192780	17.11	3.91154e-10
3	193987	17.21	4.40892e-10
3	195194	17.31	4.73577e-10
3	196401	17.41	4.92051e-10
3	197608	17.51	4.98446e-10
3	198815	17.61	4.94893e-10
3	200022	17.71	4.82814e-10
3	201229	17.81	4.6434e-10
3	202436	17.91	4.40892e-10
3	203655	18.01	4.13536e-10
3	204862	18.11	3.83693e-10
3	206069	18.21	3.51719e-10
3	207276	18.31	3.19744e-10
3	208483	18.41	2.8777e-10
3	209690	18.51	2.55795e-10
3	210897	18.61	2.25953e-10
3	212104	18.71	1.97531e-10
3	213311	18.81	1.6982e-10
3	214518	18.91	1.44951e-10
3	215737	19.01	1.21503e-10
3	216944	19.11	1.00187e-10
3	218151	19.21	8.10019e-11
3	219358	19.31	6.32383e-11
3	220565	19.41	4.86722e-11
3	221772	19.51	3.44613e-11
3	222979	19.61	2.34479e-11
3	224186	19.71	1.27898e-11
3	225393	19.81	4.9738e-12
3	226600	19.91	-2.13163e-12
3	227819	20.01	-8.17124e-12
3	229026	20.11	-1.1724e-11
3	230233	20.21	-1.52767e-11
3	231440	20.31	-1.88294e-11
3	232647	20.41	-2.02505e-11
3	233854	20.51	-2.02505e-11
3	235061	20.61	-2.02505e-11
3	236268	20.71	-2.02505e-11
3	237475	20.81	-2.02505e-11
3	238682	20.91	-2.02505e-11
3	239901	21.01	-2.02505e-11
3	241108	21.11	-2.02505e-11
3	242315	21.21	-2.02505e-11
3	243522	21.31	-1.88294e-11
3	244729	21.41	-1.7053e-11
3	245936	21.51	-1.52767e-11
3	247143	21.61	-1.38556e-11
3	248350	21.71	-1.24345e-11
3	249557	21.81	-1.13687e-11
3	250764	21.91	-1.03029e-11
3	251983	22.01	-9.23706e-12
3	253190	22.11	-8.52651e-12
3	254397	22.21	-7.4607e-12
3	255604	22.31	-6.75016e-12
3	256811	22.41	-6.03961e-12
3	258018	22.51	-5.68434e-12
3	259225	22.61	-4.9738e-12
3	260432	22.71	-4.61853e-12
3	261639	22.81	-4.26326e-12
3	262846	22.91	-3.90799e-12
3	264065	23.01	-3.55271e-12
3	265272	23.11	-3.19744e-12
3	266479	23.21	-2.84217e-12
3	267686	23.31	-2.4869e-12
3	268893	23.41	-2.13163e-12
3	270100	23.51	-2.13163e-12
3	271307	23.61	-1.77636e-12
3	272514	23.71	-1.77636e-12
3	273721	23.81	-1.42109e-12
3	274928	23.91	-1.42109e-12
3	276147	24.01	-1.06581e-12
3	277354	24.11	-1.06581e-12
3	278561	24.21	-1.06581e-12
3	279768	24.31	-1.06581e-12
3	280975	24.41	-7.10543e-13
3	282182	24.51	-7.10543e-13
3	283389	24.61	-7.10543e-13
3	284596	24.71	-7.10543e-13
3	285803	24.81	-7.10543e-13
3	287010	24.91	-3.55271e-13
3	288229	25.01	-3.55271e-13
3	289436	25.11	-3.55271e-13
3	290643	25.21	-3.55271e-13
3	291850	25.31	-3.55271e-13
3	293057	25.41	-3.55271e-13
3	294264	25.51	-3.55271e-13
3	295471	25.61	-3.55271e-13
3	296678	25.71	-3.55271e-13
3	297885	25.81	-3.55271e-13
3	299092	25.91	0
3	300311	26.01	0
3	301518	26.11	0
3	302725	26.21	0
3	303932	26.31	0
3	305139	26.41	0
3	306346	26.51	0
3	307553	26.61	0
3	308760	26.71	0
3	309967	26.81	0
3	311174	26.91	0
3	312393	27.01	0
3	313600	27.11	0
3	314807	27.21	0
3	316014	27.31	0
3	317221	27.41	0
3	318428	27.51	0
3	319635	27.61	0
3	320842	27.71	0
3	322049	27.81	0
3	323256	27.91	0
3	324475	28.01	0
3	325682	28.11	0
3	326889	28.21	0
3	328096	28.31	0
3	329303	28.41	0
3	330510	28.51	0
3	331717	28.61	0
3	332924	28.71	0
3	334131	28.81	0
3	335338	28.91	0
3	336557	29.01	0
3	337764	29.11	0
3	338971	29.21	0
3	340178	29.31	0
3	341385	29.41	0
3	342592	29.51	0
3	343799	29.61	0
3	345006	29.71	0
3	346213	29.81	0
3	347420	29.91	0
3	348639	30.01	0
3	349846	30.11	0
3	351053	30.21	0
3	352260	30.31	0
3	353467	30.41	0
3	354674	30.51	0
3	355881	30.61	0
3	357088	30.71	0
3	358295	30.81	0
3	359502	30.91	0
3	360721	31.01	0
3	361928	31.11	0
3	363135	31.21	0
3	364342	31.31	0
3	365549	31.41	0
3	366756	31.51	0
3	367963	31.61	0
3	369170	31.71	0
3	370377	31.81	0
3	371584	31.91	0
3	372803	32.01	0
3	374010	32.11	0
3	375217	32.21	0
3	376424	32.31	0
3	377631	32.41	0
3	378838	32.51	0
3	380045	32.61	0
3	381252	32.71	0
3	382459	32.81	0
3	383666	32.91	0
3	384885	33.01	0
3	386092	33.11	0
3	387299	33.21	0
3	388506	33.31	0
3	389713	33.41	0
3	390920	33.51	0
3	392127	33.61	0
3	393334	33.71	0
3	394541	33.81	0
3	395748	33.91	0
3	396967	34.01	0
3	398174	34.11	0
3	399381	34.21	0
3	400588	34.31	0
3	401795	34.41	0
3	403002	34.51	0
3	404209	34.61	0
3	405416	34.71	0
3	406623	34.81	0
3	407830	34.91	0
3	409049	35.01	0
3	410256	35.11	0
3	411463	35.21	0
3	412670	35.31	0
3	413877	35.41	0
3	415084	35.51	0
3	416291	35.61	0
3	417498	35.71	0
3	418705	35.81	0
3	419912	35.91	0
3	421131	36.01	0
3	422338	36.11	0
3	423545	36.21	0
3	424752	36.31	0
3	426092	36.41	0
3	427298	36.51	0
3	428504	36.61	0
3	429710	36.71	0
3	430916	36.81	0
3	432122	36.91	0
3	433340	37.01	0
3	434546	37.11	0
3	435752	37.21	0
3	436958	37.31	0
3	438164	37.41	0
3	439370	37.51	0
3	440576	37.61	0
3	441782	37.71	0
3	442988	37.81	0
3	444194	37.91	0
3	445412	38.01	0
3	446618	38.11	0
3	447824	38.21	0
3	449030	38.31	0
3	450236	38.41	0
3	451442	38.51	0
3	452648	38.61	0
3	453854	38.71	0
3	455060	38.81	0
3	456266	38.91	0
3	457484	39.01	0
3	458690	39.11	0
3	459896	39.21	0
3	461102	39.31	0
3	462308	39.41	0
3	463514	39.51	0
3	464720	39.61	0
3	465926	39.71	0
3	467132	39.81	0
3	468338	39.91	0
3	469556	40.01	0
3	470762	40.11	0
3	471968	40.21	0
3	473174	40.31	0
3	474380	40.41	0
3	475586	40.51	0
3	476792	40.61	0
3	477998	40.71	0
3	479204	40.81	0
3	480410	40.91	0
3	481628	41.01	0
3	482834	41.11	0
3	484040	41.21	0
3	485246	41.31	0
3	486452	41.41	0
3	487791	41.51	0
3	488996	41.61	0
3	490201	41.71	0
3	491406	41.81	0
3	492611	41.91	0
3	493828	42.01	0
3	495033	42.11	0
3	496238	42.21	0
3	497443	42.31	0
3	498648	42.41	0
3	499853	42.51	0
3	501058	42.61	0
3	502263	42.71	0
3	503468	42.81	0
3	504673	42.91	0
3	505890	43.01	0
3	507095	43.11	0
3	508300	43.21	0
3	509505	43.31	0
3	510710	43.41	0
3	511915	43.51	0
3	513120	43.61	0
3	514325	43.71	0
3	515530	43.81	0
3	516735	43.91	0
3	517952	44.01	0
3	519157	44.11	0
3	520362	44.21	0
3	521567	44.31	0
3	522772	44.41	0
3	523977	44.51	0
3	525182	44.61	0
3	526387	44.71	0
3	527592	44.81	0
3	528797	44.91	0
3	530014	45.01	0
3	531219	45.11	0
3	532424	45.21	0
3	533629	45.31	0
3	534834	45.41	0
3	536039	45.51	0
3	537244	45.61	0
3	538449	45.71	0
3	539654	45.81	0
3	540859	45.91	0
3	542209	46.01	0
3	543413	46.11	0
3	544750	46.21	0
3	545953	46.31	0
3	547156	46.41	0
3	548359	46.51	0
3	549562	46.61	0
3	550765	46.71	0
3	551968	46.81	0
3	553171	46.91	0
3	554386	47.01	0
3	555589	47.11	0
3	556792	47.21	0
3	557995	47.31	0
3	559198	47.41	0
3	560401	47.51	0
3	561604	47.61	0
3	562807	47.71	0
3	564010	47.81	0
3	565213	47.91	0
3	566428	48.01	0
3	567631	48.11	0
3	568834	48.21	0
3	570037	48.31	0
3	571240	48.41	0
3	572443	48.51	0
3	573646	48.61	0
3	574849	48.71	0
3	576052	48.81	0
3	577255	48.91	0
3	578470	49.01	0
3	579673	49.11	0
3	580876	49.21	0
3	582079	49.31	0
3	583282	49.41	0
3	584485	49.51	0
3	585688	49.61	0
3	586891	49.71	0
3	588094	49.81	0
3	589297	49.91	0
3	590512	50.01	0
3	591715	50.11	0
3	592918	50.21	0
3	594121	50.31	0
3	595324	50.41	0
3	596527	50.51	0
3	597730	50.61	0
3	599066	50.71	0
3	600268	50.81	0
3	601470	50.91	0
3	602684	51.01	0
3	603886	51.11	0
3	605088	51.21	0
3	606290	51.31	0
3	607492	51.41	0
3	608694	51.51	0
3	609896	51.61	0
3	611098	51.71	0
3	612300	51.81	0
3	613502	51.91	0
3	614716	52.01	0
3	616051	52.11	0
3	617252	52.21	0
3	618453	52.31	0
3	619654	52.41	0
3	620855	52.51	0
3	622056	52.61	0
3	623257	52.71	0
3	624458	52.81	0
3	625659	52.91	0
3	626872	53.01	0
3	628073	53.11	0
3	629274	53.21	0
3	630475	53.31	0
3	631676	53.41	0
3	632877	53.51	0
3	634078	53.61	0
3	635279	53.71	0
3	636480	53.81	0
3	637681	53.91	0
3	638894	54.01	0
3	640095	54.11	0
3	641296	54.21	0
3	642497	54.31	0
3	643698	54.41	0
3	644899	54.51	0
3	646100	54.61	0
3	647301	54.71	0
3	648502	54.81	0
3	649703	54.91	0
3	650916	55.01	0
3	652117	55.11	0
3	653318	55.21	0
3	654519	55.31	0
3	655720	55.41	0
3	656921	55.51	0
3	658122	55.61	0
3	659323	55.71	0
3	660524	55.81	0
3	661725	55.91	0
3	662938	56.01	0
3	664139	56.11	0
3	665340	56.21	0
3	666541	56.31	0
3	667742	56.41	0
3	668943	56.51	0
3	670144	56.61	0
3	671345	56.71	0
3	672546	56.81	0
3	673747	56.91	0
3	674960	57.01	0
3	676161	57.11	0
3	677362	57.21	0
3	678563	57.31	0
3	679764	57.41	0
3	681098	57.51	0
3	682298	57.61	0
3	683498	57.71	0
3	684698	57.81	0
3	685898	57.91	0
3	687110	58.01	0
3	688310	58.11	0
3	689510	58.21	0
3	690710	58.31	0
3	691910	58.41	0
3	693110	58.51	0
3	694310	58.61	0
3	695510	58.71	0
3	696710	58.81	0
3	697910	58.91	0
3	699122	59.01	0
3	700322	59.11	0
3	701522	59.21	0
3	702722	59.31	0
3	703922	59.41	0
3	705122	59.51	0
3	706322	59.61	0
3	707522	59.71	0
3	708722	59.81	0
3	709922	59.91	0
3	711134	60.01	0
3	712334	60.11	0
3	713534	60.21	0
3	714734	60.31	0
3	715934	60.41	0
3	717134	60.51	0
3	718334	60.61	0
3	719534	60.71	0
3	720734	60.81	0
3	721934	60.91	0
3	723146	61.01	0
3	724346	61.11	0
3	725546	61.21	0
3	726746	61.31	0
3	727946	61.41	0
3	729146	61.51	0
3	730346	61.61	0
3	731546	61.71	0
3	732746	61.81	0
3	733946	61.91	0
3	735158	62.01	0
3	736358	62.11	0
3	737558	62.21	0
3	738758	62.31	0
3	739958	62.41	0
3	741158	62.51	0
3	742491	62.61	0
3	743690	62.71	0
3	744889	62.81	0
3	746088	62.91	0
3	747299	63.01	0
3	748498	63.11	0
3	749697	63.21	0
3	750896	63.31	0
3	752095	63.41	0
3	753294	63.51	0
3	754493	63.61	0
3	755692	63.71	0
3	756891	63.81	0
3	758090	63.91	0
3	759301	64.01	0
3	760500	64.11	0
3	761699	64.21	0
3	762898	64.31	0
3	764097	64.41	0
3	765296	64.51	0
3	766495	64.61	0
3	767694	64.71	0
3	768893	64.81	0
3	770092	64.91	0
3	771303	65.01	0
3	772502	65.11	0
3	773701	65.21	0
3	774900	65.31	0
3	776099	65.41	0
3	777298	65.51	0
3	778497	65.61	0
3	779696	65.71	0
3	780895	65.81	0
3	782094	65.91	0
3	783305	66.01	0
3	784504	66.11	0
3	785703	66.21	0
3	786902	66.31	0
3	788101	66.41	0
3	789300	66.51	0
3	790499	66.61	0
3	791698	66.71	0
3	792897	66.81	0
3	794096	66.91	0
3	795307	67.01	0
3	796506	67.11	0
3	797705	67.21	0
3	798904	67.31	0
3	800103	67.41	0
3	802100	67.51	0
3	803298	67.61	0
3	804496	67.71	0
3	805694	67.81	0
3	806892	67.91	0
3	808102	68.01	0
3	809300	68.11	0
3	810498	68.21	0
3	811696	68.31	0
3	812894	68.41	0
3	814092	68.51	0
3	815290	68.61	0
3	816488	68.71	0
3	817686	68.81	0
3	818884	68.91	0
3	820094	69.01	0
3	821292	69.11	0
3	822490	69.21	0
3	823688	69.31	0
3	824886	69.41	0
3	826084	69.51	0
3	827282	69.61	0
3	828480	69.71	0
3	829678	69.81	0
3	830876	69.91	0
3	832086	70.01	0
3	833284	70.11	0
3	834482	70.21	0
3	835680	70.31	0
3	836878	70.41	0
3	838076	70.51	0
3	839274	70.61	0
3	840472	70.71	0
3	841670	70.81	0
3	842868	70.91	0
3	844078	71.01	0
3	845276	71.11	0
3	846474	71.21	0
3	847672	71.31	0
3	848870	71.41	0
3	850068	71.51	0
3	851266	71.61	0
3	852464	71.71	0
3	853662	71.81	0
3	854860	71.91	0
3	856070	72.01	0
3	857268	72.11	0
3	858466	72.21	0
3	859664	72.31	0
3	860862	72.41	0
3	862060	72.51	0
3	863258	72.61	0
3	864456	72.71	0
3	865654	72.81	0
3	866852	72.91	0
3	868062	73.01	0
3	869260	73.11	0
3	870458	73.21	0
3	871656	73.31	0
3	872854	73.41	0
3	874052	73.51	0
3	875250	73.61	0
3	876448	73.71	0
3	877646	73.81	0
3	878844	73.91	0
[...]
160	1131881	95	6
160	1143873	96	6
160	1155865	97	6
160	1167857	98	6
160	1179849	99	6
160	1191841	100	6
161	10902	2	0.033705
161	22894	3	0.03745
161	34886	4	0.03745
161	46878	5	0.03745
161	58870	6	0.03745
161	70862	7	0.03745
161	82854	8	0.03745
161	94846	9	0.03745
161	106840	10	0.03745
161	119067	11	0.037499000003
161	131149	12	0.03745
161	143231	13	0.03745
161	155313	14	0.03745
161	167395	15	0.03745
161	179477	16	0.03745
161	191559	17	0.03745
161	203641	18	0.03745
161	215723	19	0.03745
161	227805	20	0.03745
161	239887	21	0.03745
161	251969	22	0.03745
161	264051	23	0.03745
161	276133	24	0.03745
161	288215	25	0.03745
161	300297	26	0.03745
161	312379	27	0.03745
161	324461	28	0.03745
161	336543	29	0.03745
161	348625	30	0.03745
161	360707	31	0.03745
161	372789	32	0.03745
161	384871	33	0.03745
161	396953	34	0.03745
161	409035	35	0.03745
161	421117	36	0.03745
161	433327	37	0.037562
161	445399	38	0.03745
161	457471	39	0.03745
161	469543	40	0.03745
161	481615	41	0.03745
161	493816	42	0.037562
161	505878	43	0.03745
161	517940	44	0.03745
161	530002	45	0.03745
161	542064	46	0.03745
161	554376	47	0.037706
161	566418	48	0.03745
161	578460	49	0.03745
161	590502	50	0.03745
161	602675	51	0.037562
161	614707	52	0.03745
161	626864	53	0.037594
161	638886	54	0.03745
161	650908	55	0.03745
161	662930	56	0.03745
161	674952	57	0.03745
161	687103	58	0.037594
161	699115	59	0.03745
161	711127	60	0.03745
161	723139	61	0.03745
161	735151	62	0.03745
161	747293	63	0.037594
161	759295	64	0.03745
161	771297	65	0.03745
161	783299	66	0.03745
161	795301	67	0.03745
161	808097	68	0.038320898944
161	820089	69	0.03745
161	832081	70	0.03745
161	844073	71	0.03745
161	856065	72	0.03745
161	868057	73	0.03745
161	880049	74	0.03745
161	892041	75	0.03745
161	904033	76	0.03745
161	916025	77	0.03745
161	928017	78	0.03745
161	940009	79	0.03745
161	952001	80	0.03745
161	963993	81	0.03745
161	975985	82	0.03745
161	987977	83	0.03745
161	999969	84	0.03745
161	1011961	85	0.03745
161	1023953	86	0.03745
161	1035945	87	0.03745
161	1047937	88	0.03745
161	1059929	89	0.03745
161	1071921	90	0.03745
161	1083913	91	0.03745
161	1095905	92	0.03745
161	1107897	93	0.03745
161	1119889	94	0.03745
161	1131881	95	0.03745
161	1143873	96	0.03745
161	1155865	97	0.03745
161	1167857	98	0.03745
161	1179849	99	0.03745
161	1191841	100	0.03745
162	10902	2	0
162	22894	3	0
162	34886	4	0
162	46878	5	0
162	58870	6	0
162	70862	7	0
162	82854	8	0
162	94846	9	0
162	106840	10	0
162	119067	11	0
162	131149	12	0
162	143231	13	0
162	155313	14	0
162	167395	15	0
162	179477	16	0
162	191559	17	0
162	203641	18	0
162	215723	19	0
162	227805	20	0
162	239887	21	0
162	251969	22	0
162	264051	23	0
162	276133	24	0
162	288215	25	0
162	300297	26	0
162	312379	27	0
162	324461	28	0
162	336543	29	0
162	348625	30	0
162	360707	31	0
162	372789	32	0
162	384871	33	0
162	396953	34	0
162	409035	35	0
162	421117	36	0
162	433327	37	0
162	445399	38	0
162	457471	39	0
162	469543	40	0
162	481615	41	0
162	493816	42	0
162	505878	43	0
162	517940	44	0
162	530002	45	0
162	542064	46	0
162	554376	47	0
162	566418	48	0
162	578460	49	0
162	590502	50	0
162	602675	51	0
162	614707	52	0
162	626864	53	0
162	638886	54	0
162	650908	55	0
162	662930	56	0
162	674952	57	0
162	687103	58	0
162	699115	59	0
162	711127	60	0
162	723139	61	0
162	735151	62	0
162	747293	63	0
162	759295	64	0
162	771297	65	0
162	783299	66	0
162	795301	67	0
162	808097	68	0
162	820089	69	0
162	832081	70	0
162	844073	71	0
162	856065	72	0
162	868057	73	0
162	880049	74	0
162	892041	75	0
162	904033	76	0
162	916025	77	0
162	928017	78	0
162	940009	79	0
162	952001	80	0
162	963993	81	0
162	975985	82	0
162	987977	83	0
162	999969	84	0
162	1011961	85	0
162	1023953	86	0
162	1035945	87	0
162	1047937	88	0
162	1059929	89	0
162	1071921	90	0
162	1083913	91	0
162	1095905	92	0
162	1107897	93	0
162	1119889	94	0
162	1131881	95	0
162	1143873	96	0
162	1155865	97	0
162	1167857	98	0
162	1179849	99	0
162	1191841	100	0
163	10903	2	7
163	22895	3	7
163	34887	4	7
163	46879	5	7
163	58871	6	7
163	70863	7	7
163	82855	8	7
163	94847	9	7
163	106841	10	7
163	119068	11	7
163	131150	12	7
163	143232	13	7
163	155314	14	7
163	167396	15	7
163	179478	16	7
163	191560	17	7
163	203642	18	7
163	215724	19	7
163	227806	20	7
163	239888	21	7
163	251970	22	7
163	264052	23	7
163	276134	24	7
163	288216	25	7
163	300298	26	7
163	312380	27	7
163	324462	28	7
163	336544	29	7
163	348626	30	7
163	360708	31	7
163	372790	32	7
163	384872	33	7
163	396954	34	7
163	409036	35	7
163	421118	36	7
163	433328	37	7
163	445400	38	7
163	457472	39	7
163	469544	40	7
163	481616	41	7
163	493817	42	7
163	505879	43	7
163	517941	44	7
163	530003	45	7
163	542065	46	7
163	554377	47	7
163	566419	48	7
163	578461	49	7
163	590503	50	7
163	602676	51	7
163	614708	52	7
163	626865	53	7
163	638887	54	7
163	650909	55	7
163	662931	56	7
163	674953	57	7
163	687104	58	7
163	699116	59	7
163	711128	60	7
163	723140	61	7
163	735152	62	7
163	747294	63	7
163	759296	64	7
163	771298	65	7
163	783300	66	7
163	795302	67	7
163	808098	68	7
163	820090	69	7
163	832082	70	7
163	844074	71	7
163	856066	72	7
163	868058	73	7
163	880050	74	7
163	892042	75	7
163	904034	76	7
163	916026	77	7
163	928018	78	7
163	940010	79	7
163	952002	80	7
163	963994	81	7
163	975986	82	7
163	987978	83	7
163	999970	84	7
163	1011962	85	7
163	1023954	86	7
163	1035946	87	7
163	1047938	88	7
163	1059930	89	7
163	1071922	90	7
163	1083914	91	7
163	1095906	92	7
163	1107898	93	7
163	1119890	94	7
163	1131882	95	7
163	1143874	96	7
163	1155866	97	7
163	1167858	98	7
163	1179850	99	7
163	1191842	100	7
164	10903	2	0.033705
164	22895	3	0.03745
164	34887	4	0.03745
164	46879	5	0.03745
164	58871	6	0.03745
164	70863	7	0.03745
164	82855	8	0.03745
164	94847	9	0.03745
164	106841	10	0.03745
164	119068	11	0.037498
164	131150	12	0.03745
164	143232	13	0.03745
164	155314	14	0.03745
164	167396	15	0.03745
164	179478	16	0.03745
164	191560	17	0.03745
164	203642	18	0.03745
164	215724	19	0.03745
164	227806	20	0.03745
164	239888	21	0.03745
164	251970	22	0.03745
164	264052	23	0.03745
164	276134	24	0.03745
164	288216	25	0.03745
164	300298	26	0.03745
164	312380	27	0.03745
164	324462	28	0.03745
164	336544	29	0.03745
164	348626	30	0.03745
164	360708	31	0.03745
164	372790	32	0.03745
164	384872	33	0.03745
164	396954	34	0.03745
164	409036	35	0.03745
164	421118	36	0.03745
164	433328	37	0.037562
164	445400	38	0.03745
164	457472	39	0.03745
164	469544	40	0.03745
164	481616	41	0.03745
164	493817	42	0.037562
164	505879	43	0.03745
164	517941	44	0.03745
164	530003	45	0.03745
164	542065	46	0.03745
164	554377	47	0.037707126092
164	566419	48	0.03745
164	578461	49	0.03745
164	590503	50	0.03745
164	602676	51	0.037562
164	614708	52	0.03745
164	626865	53	0.037562
164	638887	54	0.03745
164	650909	55	0.03745
164	662931	56	0.03745
164	674953	57	0.03745
164	687104	58	0.037562
164	699116	59	0.03745
164	711128	60	0.03745
164	723140	61	0.03745
164	735152	62	0.03745
164	747294	63	0.037562
164	759296	64	0.03745
164	771298	65	0.03745
164	783300	66	0.03745
164	795302	67	0.03745
164	808098	68	0.038154
164	820090	69	0.03745
164	832082	70	0.03745
164	844074	71	0.03745
164	856066	72	0.03745
164	868058	73	0.03745
164	880050	74	0.03745
164	892042	75	0.03745
164	904034	76	0.03745
164	916026	77	0.03745
164	928018	78	0.03745
164	940010	79	0.03745
164	952002	80	0.03745
164	963994	81	0.03745
164	975986	82	0.03745
164	987978	83	0.03745
164	999970	84	0.03745
164	1011962	85	0.03745
164	1023954	86	0.03745
164	1035946	87	0.03745
164	1047938	88	0.03745
164	1059930	89	0.03745
164	1071922	90	0.03745
164	1083914	91	0.03745
164	1095906	92	0.03745
164	1107898	93	0.03745
164	1119890	94	0.03745
164	1131882	95	0.03745
164	1143874	96	0.03745
164	1155866	97	0.03745
164	1167858	98	0.03745
164	1179850	99	0.03745
164	1191842	100	0.03745
165	10903	2	0
165	22895	3	0
165	34887	4	0
165	46879	5	0
165	58871	6	0
165	70863	7	0
165	82855	8	0
165	94847	9	0
165	106841	10	0
165	119068	11	0
165	131150	12	0
165	143232	13	0
165	155314	14	0
165	167396	15	0
165	179478	16	0
165	191560	17	0
165	203642	18	0
165	215724	19	0
165	227806	20	0
165	239888	21	0
165	251970	22	0
165	264052	23	0
165	276134	24	0
165	288216	25	0
165	300298	26	0
165	312380	27	0
165	324462	28	0
165	336544	29	0
165	348626	30	0
165	360708	31	0
165	372790	32	0
165	384872	33	0
165	396954	34	0
165	409036	35	0
165	421118	36	0
165	433328	37	0
165	445400	38	0
165	457472	39	0
165	469544	40	0
165	481616	41	0
165	493817	42	0
165	505879	43	0
165	517941	44	0
165	530003	45	0
165	542065	46	0
165	554377	47	0
165	566419	48	0
165	578461	49	0
165	590503	50	0
165	602676	51	0
165	614708	52	0
165	626865	53	0
165	638887	54	0
165	650909	55	0
165	662931	56	0
165	674953	57	0
165	687104	58	0
165	699116	59	0
165	711128	60	0
165	723140	61	0
165	735152	62	0
165	747294	63	0
165	759296	64	0
165	771298	65	0
165	783300	66	0
165	795302	67	0
165	808098	68	0
165	820090	69	0
165	832082	70	0
165	844074	71	0
165	856066	72	0
165	868058	73	0
165	880050	74	0
165	892042	75	0
165	904034	76	0
165	916026	77	0
165	928018	78	0
165	940010	79	0
165	952002	80	0
165	963994	81	0
165	975986	82	0
165	987978	83	0
165	999970	84	0
165	1011962	85	0
165	1023954	86	0
165	1035946	87	0
165	1047938	88	0
165	1059930	89	0
165	1071922	90	0
165	1083914	91	0
165	1095906	92	0
165	1107898	93	0
165	1119890	94	0
165	1131882	95	0
165	1143874	96	0
165	1155866	97	0
165	1167858	98	0
165	1179850	99	0
165	1191842	100	0
166	10904	2	8
166	22896	3	8
166	34888	4	8
166	46880	5	8
166	58872	6	8
166	70864	7	8
166	82856	8	8
166	94848	9	8
166	106842	10	8
166	119069	11	8
166	131151	12	8
166	143233	13	8
166	155315	14	8
166	167397	15	8
166	179479	16	8
166	191561	17	8
166	203643	18	8
166	215725	19	8
166	227807	20	8
166	239889	21	8
166	251971	22	8
166	264053	23	8
166	276135	24	8
166	288217	25	8
166	300299	26	8
166	312381	27	8
166	324463	28	8
166	336545	29	8
166	348627	30	8
166	360709	31	8
166	372791	32	8
166	384873	33	8
166	396955	34	8
166	409037	35	8
166	421119	36	8
166	433329	37	8
166	445401	38	8
166	457473	39	8
166	469545	40	8
166	481617	41	8
166	493818	42	8
166	505880	43	8
166	517942	44	8
166	530004	45	8
166	542066	46	8
166	554378	47	8
166	566420	48	8
166	578462	49	8
166	590504	50	8
166	602677	51	8
166	614709	52	8
166	626866	53	8
166	638888	54	8
166	650910	55	8
166	662932	56	8
166	674954	57	8
166	687105	58	8
166	699117	59	8
166	711129	60	8
166	723141	61	8
166	735153	62	8
166	747295	63	8
166	759297	64	8
166	771299	65	8
166	783301	66	8
166	795303	67	8
166	808099	68	8
166	820091	69	8
166	832083	70	8
166	844075	71	8
166	856067	72	8
166	868059	73	8
166	880051	74	8
166	892043	75	8
166	904035	76	8
166	916027	77	8
166	928019	78	8
166	940011	79	8
166	952003	80	8
166	963995	81	8
166	975987	82	8
166	987979	83	8
166	999971	84	8
166	1011963	85	8
166	1023955	86	8
166	1035947	87	8
166	1047939	88	8
166	1059931	89	8
166	1071923	90	8
166	1083915	91	8
166	1095907	92	8
166	1107899	93	8
166	1119891	94	8
166	1131883	95	8
166	1143875	96	8
166	1155867	97	8
166	1167859	98	8
166	1179851	99	8
166	1191843	100	8
167	10904	2	0.033705
167	22896	3	0.03745
167	34888	4	0.03745
167	46880	5	0.03745
167	58872	6	0.03745
167	70864	7	0.03745
167	82856	8	0.03745
167	94848	9	0.03745
167	106842	10	0.03745
167	119069	11	0.037498
167	131151	12	0.03745
167	143233	13	0.03745
167	155315	14	0.03745
167	167397	15	0.03745
167	179479	16	0.03745
167	191561	17	0.03745
167	203643	18	0.03745
167	215725	19	0.03745
167	227807	20	0.03745
167	239889	21	0.03745
167	251971	22	0.03745
167	264053	23	0.03745
167	276135	24	0.03745
167	288217	25	0.03745
167	300299	26	0.03745
167	312381	27	0.03745
167	324463	28	0.03745
167	336545	29	0.03745
167	348627	30	0.03745
167	360709	31	0.03745
167	372791	32	0.03745
167	384873	33	0.03745
167	396955	34	0.03745
167	409037	35	0.03745
167	421119	36	0.03745
167	433329	37	0.037562
167	445401	38	0.03745
167	457473	39	0.03745
167	469545	40	0.03745
167	481617	41	0.03745
167	493818	42	0.037562
167	505880	43	0.03745
167	517942	44	0.03745
167	530004	45	0.03745
167	542066	46	0.03745
167	554378	47	0.037674
167	566420	48	0.03745
167	578462	49	0.03745
167	590504	50	0.03745
167	602677	51	0.037562
167	614709	52	0.03745
167	626866	53	0.037595252578
167	638888	54	0.03745
167	650910	55	0.03745
167	662932	56	0.03745
167	674954	57	0.03745
167	687105	58	0.037562
167	699117	59	0.03745
167	711129	60	0.03745
167	723141	61	0.03745
167	735153	62	0.03745
167	747295	63	0.037562
167	759297	64	0.03745
167	771299	65	0.03745
167	783301	66	0.03745
167	795303	67	0.03745
167	808099	68	0.038154
167	820091	69	0.03745
167	832083	70	0.03745
167	844075	71	0.03745
167	856067	72	0.03745
167	868059	73	0.03745
167	880051	74	0.03745
167	892043	75	0.03745
167	904035	76	0.03745
167	916027	77	0.03745
167	928019	78	0.03745
167	940011	79	0.03745
167	952003	80	0.03745
167	963995	81	0.03745
167	975987	82	0.03745
167	987979	83	0.03745
167	999971	84	0.03745
167	1011963	85	0.03745
167	1023955	86	0.03745
167	1035947	87	0.03745
167	1047939	88	0.03745
167	1059931	89	0.03745
167	1071923	90	0.03745
167	1083915	91	0.03745
167	1095907	92	0.03745
167	1107899	93	0.03745
167	1119891	94	0.03745
167	1131883	95	0.03745
167	1143875	96	0.03745
167	1155867	97	0.03745
167	1167859	98	0.03745
167	1179851	99	0.03745
167	1191843	100	0.03745
168	10904	2	0
168	22896	3	0
168	34888	4	0
168	46880	5	0
168	58872	6	0
168	70864	7	0
168	82856	8	0
168	94848	9	0
168	106842	10	0
168	119069	11	0
168	131151	12	0
168	143233	13	0
168	155315	14	0
168	167397	15	0
168	179479	16	0
168	191561	17	0
168	203643	18	0
168	215725	19	0
168	227807	20	0
168	239889	21	0
168	251971	22	0
168	264053	23	0
168	276135	24	0
168	288217	25	0
168	300299	26	0
168	312381	27	0
168	324463	28	0
168	336545	29	0
168	348627	30	0
168	360709	31	0
168	372791	32	0
168	384873	33	0
168	396955	34	0
168	409037	35	0
168	421119	36	0
168	433329	37	0
168	445401	38	0
168	457473	39	0
168	469545	40	0
168	481617	41	0
168	493818	42	0
168	505880	43	0
168	517942	44	0
168	530004	45	0
168	542066	46	0
168	554378	47	0
168	566420	48	0
168	578462	49	0
168	590504	50	0
168	602677	51	0
168	614709	52	0
168	626866	53	0
168	638888	54	0
168	650910	55	0
168	662932	56	0
168	674954	57	0
168	687105	58	0
168	699117	59	0
168	711129	60	0
168	723141	61	0
168	735153	62	0
168	747295	63	0
168	759297	64	0
168	771299	65	0
168	783301	66	0
168	795303	67	0
168	808099	68	0
168	820091	69	0
168	832083	70	0
168	844075	71	0
168	856067	72	0
168	868059	73	0
168	880051	74	0
168	892043	75	0
168	904035	76	0
168	916027	77	0
168	928019	78	0
168	940011	79	0
168	952003	80	0
168	963995	81	0
168	975987	82	0
168	987979	83	0
168	999971	84	0
168	1011963	85	0
168	1023955	86	0
168	1035947	87	0
168	1047939	88	0
168	1059931	89	0
168	1071923	90	0
168	1083915	91	0
168	1095907	92	0
168	1107899	93	0
168	1119891	94	0
168	1131883	95	0
168	1143875	96	0
168	1155867	97	0
168	1167859	98	0
168	1179851	99	0
168	1191843	100	0
169	10905	2	9
169	22897	3	9
169	34889	4	9
169	46881	5	9
169	58873	6	9
169	70865	7	9
169	82857	8	9
169	94849	9	9
169	106843	10	9
169	119070	11	9
169	131152	12	9
169	143234	13	9
169	155316	14	9
169	167398	15	9
169	179480	16	9
169	191562	17	9
169	203644	18	9
169	215726	19	9
169	227808	20	9
169	239890	21	9
169	251972	22	9
169	264054	23	9
169	276136	24	9
169	288218	25	9
169	300300	26	9
169	312382	27	9
169	324464	28	9
169	336546	29	9
169	348628	30	9
169	360710	31	9
169	372792	32	9
169	384874	33	9
169	396956	34	9
169	409038	35	9
169	421120	36	9
169	433330	37	9
169	445402	38	9
169	457474	39	9
169	469546	40	9
169	481618	41	9
169	493819	42	9
169	505881	43	9
169	517943	44	9
169	530005	45	9
169	542067	46	9
169	554379	47	9
169	566421	48	9
169	578463	49	9
169	590505	50	9
169	602678	51	9
169	614710	52	9
169	626867	53	9
169	638889	54	9
169	650911	55	9
169	662933	56	9
169	674955	57	9
169	687106	58	9
169	699118	59	9
169	711130	60	9
169	723142	61	9
169	735154	62	9
169	747296	63	9
169	759298	64	9
169	771300	65	9
169	783302	66	9
169	795304	67	9
169	808100	68	9
169	820092	69	9
169	832084	70	9
169	844076	71	9
169	856068	72	9
169	868060	73	9
169	880052	74	9
169	892044	75	9
169	904036	76	9
169	916028	77	9
169	928020	78	9
169	940012	79	9
169	952004	80	9
169	963996	81	9
169	975988	82	9
169	987980	83	9
169	999972	84	9
169	1011964	85	9
169	1023956	86	9
169	1035948	87	9
169	1047940	88	9
169	1059932	89	9
169	1071924	90	9
169	1083916	91	9
169	1095908	92	9
169	1107900	93	9
169	1119892	94	9
169	1131884	95	9
169	1143876	96	9
169	1155868	97	9
169	1167860	98	9
169	1179852	99	9
169	1191844	100	9
170	10905	2	0.033705
170	22897	3	0.03745
170	34889	4	0.03745
170	46881	5	0.03745
170	58873	6	0.03745
170	70865	7	0.03745
170	82857	8	0.03745
170	94849	9	0.03745
170	106843	10	0.03745
170	119070	11	0.037498
170	131152	12	0.03745
170	143234	13	0.03745
170	155316	14	0.03745
170	167398	15	0.03745
170	179480	16	0.03745
170	191562	17	0.03745
170	203644	18	0.03745
170	215726	19	0.03745
170	227808	20	0.03745
170	239890	21	0.03745
170	251972	22	0.03745
170	264054	23	0.03745
170	276136	24	0.03745
170	288218	25	0.03745
170	300300	26	0.03745
170	312382	27	0.03745
170	324464	28	0.03745
170	336546	29	0.03745
170	348628	30	0.03745
170	360710	31	0.03745
170	372792	32	0.03745
170	384874	33	0.03745
170	396956	34	0.03745
170	409038	35	0.03745
170	421120	36	0.03745
170	433330	37	0.037562
170	445402	38	0.03745
170	457474	39	0.03745
170	469546	40	0.03745
170	481618	41	0.03745
170	493819	42	0.037562
170	505881	43	0.03745
170	517943	44	0.03745
170	530005	45	0.03745
170	542067	46	0.03745
170	554379	47	0.037674
170	566421	48	0.03745
170	578463	49	0.03745
170	590505	50	0.03745
170	602678	51	0.037562
170	614710	52	0.03745
170	626867	53	0.037562
170	638889	54	0.03745
170	650911	55	0.03745
170	662933	56	0.03745
170	674955	57	0.03745
170	687106	58	0.037595379162
170	699118	59	0.03745
170	711130	60	0.03745
170	723142	61	0.03745
170	735154	62	0.03745
170	747296	63	0.037562
170	759298	64	0.03745
170	771300	65	0.03745
170	783302	66	0.03745
170	795304	67	0.03745
170	808100	68	0.038154
170	820092	69	0.03745
170	832084	70	0.03745
170	844076	71	0.03745
170	856068	72	0.03745
170	868060	73	0.03745
170	880052	74	0.03745
170	892044	75	0.03745
170	904036	76	0.03745
170	916028	77	0.03745
170	928020	78	0.03745
170	940012	79	0.03745
170	952004	80	0.03745
170	963996	81	0.03745
170	975988	82	0.03745
170	987980	83	0.03745
170	999972	84	0.03745
170	1011964	85	0.03745
170	1023956	86	0.03745
170	1035948	87	0.03745
170	1047940	88	0.03745
170	1059932	89	0.03745
170	1071924	90	0.03745
170	1083916	91	0.03745
170	1095908	92	0.03745
170	1107900	93	0.03745
170	1119892	94	0.03745
170	1131884	95	0.03745
170	1143876	96	0.03745
170	1155868	97	0.03745
170	1167860	98	0.03745
170	1179852	99	0.03745
170	1191844	100	0.03745
171	10905	2	0
171	22897	3	0
171	34889	4	0
171	46881	5	0
171	58873	6	0
171	70865	7	0
171	82857	8	0
171	94849	9	0
171	106843	10	0
171	119070	11	0
171	131152	12	0
171	143234	13	0
171	155316	14	0
171	167398	15	0
171	179480	16	0
171	191562	17	0
171	203644	18	0
171	215726	19	0
171	227808	20	0
171	239890	21	0
171	251972	22	0
171	264054	23	0
171	276136	24	0
171	288218	25	0
171	300300	26	0
171	312382	27	0
171	324464	28	0
171	336546	29	0
171	348628	30	0
171	360710	31	0
171	372792	32	0
171	384874	33	0
171	396956	34	0
171	409038	35	0
171	421120	36	0
171	433330	37	0
171	445402	38	0
171	457474	39	0
171	469546	40	0
171	481618	41	0
171	493819	42	0
171	505881	43	0
171	517943	44	0
171	530005	45	0
171	542067	46	0
171	554379	47	0
171	566421	48	0
171	578463	49	0
171	590505	50	0
171	602678	51	0
171	614710	52	0
171	626867	53	0
171	638889	54	0
171	650911	55	0
171	662933	56	0
171	674955	57	0
171	687106	58	0
171	699118	59	0
171	711130	60	0
171	723142	61	0
171	735154	62	0
171	747296	63	0
171	759298	64	0
171	771300	65	0
171	783302	66	0
171	795304	67	0
171	808100	68	0
171	820092	69	0
171	832084	70	0
171	844076	71	0
171	856068	72	0
171	868060	73	0
171	880052	74	0
171	892044	75	0
171	904036	76	0
171	916028	77	0
171	928020	78	0
171	940012	79	0
171	952004	80	0
171	963996	81	0
171	975988	82	0
171	987980	83	0
171	999972	84	0
171	1011964	85	0
171	1023956	86	0
171	1035948	87	0
171	1047940	88	0
171	1059932	89	0
171	1071924	90	0
171	1083916	91	0
171	1095908	92	0
171	1107900	93	0
171	1119892	94	0
171	1131884	95	0
171	1143876	96	0
171	1155868	97	0
171	1167860	98	0
171	1179852	99	0
171	1191844	100	0

