version 3
run BreakRanksNoGui-1482-20240711-18:31:02-303719
attr configname BreakRanksNoGui
attr datetime 20240711-18:31:02
attr datetimef 20240711-183102
attr experiment BreakRanksNoGui
attr inifile omnetpp.ini
attr iterationvars "$nCars=6, $platoonSize=2, $nLanes=1, $ploegH=0.5, $controller=1, $headway=0.1, $leaderHeadway=1.2, $leaderSpeed=110, $breakRanksSafetyDistance=15, $minSpeed=100, $maxSpeed=120, $beaconInterval=0.1, $priority=4, $packetSize=200, $sController=\"CACC\", $0=2, $1=0"
attr iterationvarsd nCars=6/platoonSize=2/nLanes=1/ploegH=0.5/controller=1/headway=0.1/leaderHeadway=1.2/leaderSpeed=110/breakRanksSafetyDistance=15/minSpeed=100/maxSpeed=120/beaconInterval=0.1/priority=4/packetSize=200/sController=CACC/2/0
attr iterationvarsf nCars=6,platoonSize=2,nLanes=1,ploegH=0.5,controller=1,headway=0.1,leaderHeadway=1.2,leaderSpeed=110,breakRanksSafetyDistance=15,minSpeed=100,maxSpeed=120,beaconInterval=0.1,priority=4,packetSize=200,sController=CACC,2,0-
attr measurement "$nCars=6, $platoonSize=2, $nLanes=1, $ploegH=0.5, $controller=1, $headway=0.1, $leaderHeadway=1.2, $leaderSpeed=110, $breakRanksSafetyDistance=15, $minSpeed=100, $maxSpeed=120, $beaconInterval=0.1, $priority=4, $packetSize=200, $sController=\"CACC\", $0=2, $1=0"
attr network Highway
attr processid 303719
attr repetition 2
attr replication #2
attr resultdir results
attr runnumber 1482
attr seedset 2
itervar beaconInterval 0.1
itervar breakRanksSafetyDistance 15
itervar controller 1
itervar headway 0.1
itervar leaderHeadway 1.2
itervar leaderSpeed 110
itervar maxSpeed 120
itervar minSpeed 100
itervar nCars 6
itervar nLanes 1
itervar packetSize 200
itervar platoonSize 2
itervar ploegH 0.5
itervar priority 4
itervar sController "\"CACC\""
config image-path ../../../veins/images
config repeat 10
config extends BreakRanks
config *.manager.command "\"sumo\""
config *.manager.ignoreGuiCommands true
config output-vector-file "results/BreakRanks_1_0.1_110_15_2 /result_2.vec"
config output-scalar-file "results/BreakRanks_1_0.1_110_15_2 /result_2.sca"
config extends Platooning
config *.node[*].scenario_type "\"BreakRanksScenario\""
config *.manager.command "\"sumo-gui\""
config *.node[*].scenario_type "\"SimpleScenario\""
config cmdenv-express-mode true
config cmdenv-autoflush true
config cmdenv-status-frequency 15s
config num-rngs 6
config network Highway
config debug-on-errors true
config print-undisposed true
config *.playgroundSizeX 65000m
config *.playgroundSizeY 25000m
config *.playgroundSizeZ 50m
config sim-time-limit "100 s"
config *.annotations.draw false
config *.obstacles.debug false
config *.world.useTorus false
config *.world.use2D false
config *.manager.updateInterval 0.01s
config *.manager.host "\"localhost\""
config *.manager.moduleType "\"org.car2x.plexe.PlatoonCar\""
config *.manager.moduleName "\"node\""
config *.manager.moduleDisplayString "\"\""
config *.manager.autoShutdown true
config *.manager.margin 25
config *.connectionManager.sendDirect true
config *.connectionManager.maxInterfDist 2600m
config *.connectionManager.drawMaxIntfDist false
config *.**.nic.mac1609_4.useServiceChannel false
config *.**.nic.mac1609_4.txPower 100mW
config *.**.nic.mac1609_4.bitrate 6Mbps
config *.**.nic.mac1609_4.useAcks true
config *.**.nic.mac1609_4.ackErrorRate 0.0
config *.**.nic.mac1609_4.frameErrorRate 0.0
config *.**.nic.phy80211p.minPowerLevel -94dBm
config *.**.nic.phy80211p.maxTXPower 100mW
config *.**.nic.phy80211p.useNoiseFloor true
config *.**.nic.phy80211p.noiseFloor -95dBm
config *.**.nic.phy80211p.decider "xmldoc(\"config.xml\")"
config *.**.nic.phy80211p.analogueModels "xmldoc(\"config.xml\")"
config *.**.nic.phy80211p.usePropagationDelay true
config *.node[*].mobility.x 0
config *.node[*].mobility.y 0
config *.node[*].mobility.z 1.895
config seed-set 2
config **.seed 2
config *.node[*].prot.rng-0 2
config *.node[*].appl.rng-0 3
config *.node[*].scenario.rng-0 4
config **.traffic.rng-0 5
config *.manager.configFile "\"./sumocfg/freeway.sumo.cfg\""
config *.manager.launchConfig "xmldoc(\"./sumocfg/freeway.launchd.xml\")"
config **.numberOfCars 6
config **.numberOfCarsPerPlatoon 2
config **.numberOfLanes 1
config *.node[*].helper_type "\"PositionHelper\""
config *.node[*].scenario.caccC1 0.5
config *.node[*].scenario.caccXi 1
config *.node[*].scenario.caccOmegaN "0.2 Hz"
config *.node[*].scenario.caccSpacing "2 m"
config *.node[*].scenario.engineTau "0.5 s"
config *.node[*].scenario.ploegH 0.5s
config *.node[*].scenario.ploegKp 0.2
config *.node[*].scenario.ploegKd 0.7
config *.node[*].scenario.useRealisticEngine false
config *.node[*].scenario.useControllerAcceleration true
config *.node[*].scenario.nLanes 1
config **.numericController 1
config **.headway 0.1s
config *.node[*].scenario.accHeadway 0.1s
config *.node[*].scenario.leaderHeadway 1.2s
config *.node[*].scenario.leaderSpeed 110kmph
config *.node[*].appl_type "\"SimplePlatooningApp\""
config *.node[*].appl.*.scalar-recording true
config *.node[*].appl.*.vector-recording true
config *.node[0].appl.breakRanksSafetyDistance 15m
config *.node[*].appl.minSpeed 100kmph
config *.node[*].appl.maxSpeed 120kmph
config *.node[*].protocol_type "\"SimplePlatooningBeaconing\""
config *.node[*].prot.*.scalar-recording true
config *.node[*].prot.*.vector-recording true
config *.node[*].prot.beaconingInterval 0.1s
config *.node[*].prot.priority 4
config *.node[*].prot.packetSize 200
config **.traffic_type "\"PlatoonsTrafficManager\""
config **.traffic.platoonInsertTime "1 s"
config **.traffic.platoonInsertSpeed 110kmph
config **.traffic.nCars 6
config **.traffic.platoonSize 2
config **.traffic.nLanes 1
config **.traffic.platooningVType "\"vtypeauto\""
config **.traffic.controller "\"CACC\""
config **.traffic.platoonInsertDistance 2m
config **.traffic.platoonInsertHeadway 0s
config **.traffic.platoonLeaderHeadway 1.2s
config **.scalar-recording false
config **.vector-recording false

vector 0 Highway.node[0].appl distance ETV
vector 1 Highway.node[0].appl relativeSpeed ETV
vector 2 Highway.node[0].appl nodeId ETV
vector 3 Highway.node[0].appl acceleration ETV
vector 4 Highway.node[0].appl controllerAcceleration ETV
vector 5 Highway.node[0].appl speed ETV
vector 6 Highway.node[0].appl posx ETV
vector 7 Highway.node[0].appl posy ETV
vector 8 Highway.node[1].appl distance ETV
vector 9 Highway.node[1].appl relativeSpeed ETV
vector 10 Highway.node[1].appl nodeId ETV
vector 11 Highway.node[1].appl acceleration ETV
vector 12 Highway.node[1].appl controllerAcceleration ETV
vector 13 Highway.node[1].appl speed ETV
vector 14 Highway.node[1].appl posx ETV
vector 15 Highway.node[1].appl posy ETV
vector 16 Highway.node[2].appl distance ETV
vector 17 Highway.node[2].appl relativeSpeed ETV
vector 18 Highway.node[2].appl nodeId ETV
vector 19 Highway.node[2].appl acceleration ETV
vector 20 Highway.node[2].appl controllerAcceleration ETV
vector 21 Highway.node[2].appl speed ETV
vector 22 Highway.node[2].appl posx ETV
vector 23 Highway.node[2].appl posy ETV
vector 24 Highway.node[3].appl distance ETV
vector 25 Highway.node[3].appl relativeSpeed ETV
vector 26 Highway.node[3].appl nodeId ETV
vector 27 Highway.node[3].appl acceleration ETV
vector 28 Highway.node[3].appl controllerAcceleration ETV
vector 29 Highway.node[3].appl speed ETV
vector 30 Highway.node[3].appl posx ETV
vector 31 Highway.node[3].appl posy ETV
vector 32 Highway.node[4].appl distance ETV
vector 33 Highway.node[4].appl relativeSpeed ETV
vector 34 Highway.node[4].appl nodeId ETV
vector 35 Highway.node[4].appl acceleration ETV
vector 36 Highway.node[4].appl controllerAcceleration ETV
vector 37 Highway.node[4].appl speed ETV
vector 38 Highway.node[4].appl posx ETV
vector 39 Highway.node[4].appl posy ETV
vector 40 Highway.node[5].appl distance ETV
vector 41 Highway.node[5].appl relativeSpeed ETV
vector 42 Highway.node[5].appl nodeId ETV
vector 43 Highway.node[5].appl acceleration ETV
vector 44 Highway.node[5].appl controllerAcceleration ETV
vector 45 Highway.node[5].appl speed ETV
vector 46 Highway.node[5].appl posx ETV
vector 47 Highway.node[5].appl posy ETV
vector 48 Highway.node[1].prot leaderDelay ETV
vector 49 Highway.node[1].prot leaderDelayId ETV
vector 50 Highway.node[1].prot frontDelay ETV
vector 51 Highway.node[1].prot frontDelayId ETV
vector 52 Highway.node[3].prot leaderDelay ETV
vector 53 Highway.node[3].prot leaderDelayId ETV
vector 54 Highway.node[3].prot frontDelay ETV
vector 55 Highway.node[3].prot frontDelayId ETV
vector 56 Highway.node[5].prot leaderDelay ETV
vector 57 Highway.node[5].prot leaderDelayId ETV
vector 58 Highway.node[5].prot frontDelay ETV
vector 59 Highway.node[5].prot frontDelayId ETV
vector 60 Highway.node[0].prot nodeId ETV
vector 61 Highway.node[0].prot busyTime ETV
vector 62 Highway.node[0].prot collisions ETV
vector 63 Highway.node[1].prot nodeId ETV
vector 64 Highway.node[1].prot busyTime ETV
vector 65 Highway.node[1].prot collisions ETV
vector 66 Highway.node[2].prot nodeId ETV
vector 67 Highway.node[2].prot busyTime ETV
vector 68 Highway.node[2].prot collisions ETV
vector 69 Highway.node[3].prot nodeId ETV
vector 70 Highway.node[3].prot busyTime ETV
vector 71 Highway.node[3].prot collisions ETV
vector 72 Highway.node[4].prot nodeId ETV
vector 73 Highway.node[4].prot busyTime ETV
vector 74 Highway.node[4].prot collisions ETV
vector 75 Highway.node[5].prot nodeId ETV
vector 76 Highway.node[5].prot busyTime ETV
vector 77 Highway.node[5].prot collisions ETV
0	113	1.11	-1
0	429	1.21	-1
0	745	1.31	-1
0	1061	1.41	-1
0	1377	1.51	-1
0	1693	1.61	-1
0	2009	1.71	-1
0	2325	1.81	-1
0	2641	1.91	-1
0	2963	2.01	-1
0	3279	2.11	-1
0	3595	2.21	-1
0	3911	2.31	-1
0	4227	2.41	-1
0	4543	2.51	-1
0	4859	2.61	-1
0	5175	2.71	-1
0	5491	2.81	-1
0	5807	2.91	-1
0	6129	3.01	-1
0	6445	3.11	-1
0	6761	3.21	-1
0	7077	3.31	-1
0	7393	3.41	-1
0	7709	3.51	-1
0	8025	3.61	-1
0	8341	3.71	-1
0	8657	3.81	-1
0	8973	3.91	-1
0	9295	4.01	-1
0	9611	4.11	-1
0	9927	4.21	-1
0	10243	4.31	-1
0	10559	4.41	-1
0	10875	4.51	-1
0	11191	4.61	-1
0	11507	4.71	-1
0	11823	4.81	-1
0	12139	4.91	-1
0	12461	5.01	-1
0	12777	5.11	-1
0	13093	5.21	-1
0	13409	5.31	-1
0	13725	5.41	-1
0	14041	5.51	-1
0	14357	5.61	-1
0	14673	5.71	-1
0	14989	5.81	-1
0	15305	5.91	-1
0	15627	6.01	-1
0	15943	6.11	-1
0	16259	6.21	-1
0	16575	6.31	-1
0	16891	6.41	-1
0	17207	6.51	-1
0	17523	6.61	-1
0	17839	6.71	-1
0	18155	6.81	-1
0	18471	6.91	-1
0	18793	7.01	-1
0	19109	7.11	-1
0	19425	7.21	-1
0	19741	7.31	-1
0	20057	7.41	-1
0	20373	7.51	-1
0	20689	7.61	-1
0	21005	7.71	-1
0	21321	7.81	-1
0	21637	7.91	-1
0	21959	8.01	-1
0	22275	8.11	-1
0	22591	8.21	-1
0	22907	8.31	-1
0	23223	8.41	-1
0	23539	8.51	-1
0	23855	8.61	-1
0	24171	8.71	-1
0	24487	8.81	-1
0	24803	8.91	-1
0	25125	9.01	-1
0	25441	9.11	-1
0	25757	9.21	-1
0	26073	9.31	-1
0	26389	9.41	-1
0	26705	9.51	-1
0	27021	9.61	-1
0	27337	9.71	-1
0	27653	9.81	-1
0	27969	9.91	-1
0	28391	10.01	-1
0	28708	10.11	-1
0	29025	10.21	-1
0	29342	10.31	-1
0	29659	10.41	-1
0	29976	10.51	-1
0	30293	10.61	-1
0	30610	10.71	-1
0	30927	10.81	-1
0	31244	10.91	-1
0	31567	11.01	-1
0	31884	11.11	-1
0	32201	11.21	-1
0	32518	11.31	-1
0	32835	11.41	-1
0	33152	11.51	-1
0	33469	11.61	-1
0	33786	11.71	-1
0	34103	11.81	-1
0	34420	11.91	-1
0	34743	12.01	-1
0	35060	12.11	-1
0	35377	12.21	-1
0	35694	12.31	-1
0	36011	12.41	-1
0	36328	12.51	-1
0	36645	12.61	-1
0	36962	12.71	-1
0	37279	12.81	-1
0	37596	12.91	-1
0	37919	13.01	-1
0	38236	13.11	-1
0	38553	13.21	-1
0	38870	13.31	-1
0	39187	13.41	-1
0	39504	13.51	-1
0	39821	13.61	-1
0	40138	13.71	-1
0	40455	13.81	-1
0	40772	13.91	-1
0	41095	14.01	-1
0	41412	14.11	-1
0	41729	14.21	-1
0	42046	14.31	-1
0	42363	14.41	-1
0	42680	14.51	-1
0	42997	14.61	-1
0	43314	14.71	-1
0	43631	14.81	-1
0	43948	14.91	-1
0	44271	15.01	-1
0	44588	15.11	-1
0	44905	15.21	-1
0	45222	15.31	-1
0	45539	15.41	-1
0	45856	15.51	-1
0	46173	15.61	-1
0	46490	15.71	-1
0	46807	15.81	-1
0	47124	15.91	-1
0	47447	16.01	-1
0	47764	16.11	-1
0	48081	16.21	-1
0	48398	16.31	-1
0	48715	16.41	-1
0	49032	16.51	-1
0	49349	16.61	-1
0	49666	16.71	-1
0	49983	16.81	-1
0	50300	16.91	-1
0	50623	17.01	-1
0	50940	17.11	-1
0	51257	17.21	-1
0	51574	17.31	-1
0	51891	17.41	-1
0	52208	17.51	-1
0	52525	17.61	-1
0	52842	17.71	-1
0	53159	17.81	-1
0	53476	17.91	-1
0	53799	18.01	-1
0	54116	18.11	-1
0	54433	18.21	-1
0	54750	18.31	-1
0	55067	18.41	-1
0	55384	18.51	-1
0	55701	18.61	-1
0	56018	18.71	-1
0	56335	18.81	-1
0	56652	18.91	-1
0	56975	19.01	-1
0	57292	19.11	-1
0	57609	19.21	-1
0	57926	19.31	-1
0	58243	19.41	-1
0	58560	19.51	-1
0	58877	19.61	-1
0	59194	19.71	-1
0	59511	19.81	-1
0	59828	19.91	-1
0	60151	20.01	-1
0	60468	20.11	-1
0	60785	20.21	-1
0	61102	20.31	-1
0	61419	20.41	-1
0	61736	20.51	-1
0	62053	20.61	-1
0	62370	20.71	-1
0	62687	20.81	-1
0	63004	20.91	-1
0	63327	21.01	-1
0	63644	21.11	-1
0	63961	21.21	-1
0	64278	21.31	-1
0	64595	21.41	-1
0	64912	21.51	-1
0	65229	21.61	-1
0	65546	21.71	-1
0	65863	21.81	-1
0	66180	21.91	-1
0	66503	22.01	-1
0	66820	22.11	-1
0	67137	22.21	-1
0	67454	22.31	-1
0	67771	22.41	-1
0	68088	22.51	-1
0	68405	22.61	-1
0	68722	22.71	-1
0	69039	22.81	-1
0	69356	22.91	-1
0	69679	23.01	-1
0	69996	23.11	-1
0	70313	23.21	-1
0	70630	23.31	-1
0	70947	23.41	-1
0	71264	23.51	-1
0	71581	23.61	-1
0	71898	23.71	-1
0	72215	23.81	-1
0	72532	23.91	-1
0	72855	24.01	-1
0	73172	24.11	-1
0	73489	24.21	-1
0	73806	24.31	-1
0	74123	24.41	-1
0	74440	24.51	-1
0	74757	24.61	-1
0	75074	24.71	-1
0	75391	24.81	-1
0	75708	24.91	-1
0	76031	25.01	-1
0	76348	25.11	-1
0	76665	25.21	-1
0	76982	25.31	-1
0	77299	25.41	-1
0	77616	25.51	-1
0	77933	25.61	-1
0	78250	25.71	-1
0	78567	25.81	-1
0	78884	25.91	-1
0	79207	26.01	-1
0	79524	26.11	-1
0	79841	26.21	-1
0	80158	26.31	-1
0	80475	26.41	-1
0	80792	26.51	-1
0	81109	26.61	-1
0	81426	26.71	-1
0	81743	26.81	-1
0	82060	26.91	-1
0	82383	27.01	-1
0	82700	27.11	-1
0	83017	27.21	-1
0	83334	27.31	-1
0	83651	27.41	-1
0	83968	27.51	-1
0	84285	27.61	-1
0	84602	27.71	-1
0	84919	27.81	-1
0	85236	27.91	-1
0	85559	28.01	-1
0	85876	28.11	-1
0	86193	28.21	-1
0	86510	28.31	-1
0	86827	28.41	-1
0	87144	28.51	-1
0	87461	28.61	-1
0	87778	28.71	-1
0	88095	28.81	-1
0	88412	28.91	-1
0	88735	29.01	-1
0	89052	29.11	-1
0	89369	29.21	-1
0	89686	29.31	-1
0	90003	29.41	-1
0	90320	29.51	-1
0	90637	29.61	-1
0	90954	29.71	-1
0	91271	29.81	-1
0	91588	29.91	-1
0	91911	30.01	-1
0	92228	30.11	-1
0	92545	30.21	-1
0	92862	30.31	-1
0	93179	30.41	-1
0	93496	30.51	-1
0	93813	30.61	-1
0	94130	30.71	-1
0	94447	30.81	-1
0	94764	30.91	-1
0	95087	31.01	-1
0	95404	31.11	-1
0	95721	31.21	-1
0	96038	31.31	-1
0	96355	31.41	-1
0	96672	31.51	-1
0	96989	31.61	-1
0	97306	31.71	-1
0	97623	31.81	-1
0	97940	31.91	-1
0	98263	32.01	-1
0	98580	32.11	-1
0	98897	32.21	-1
0	99214	32.31	-1
0	99531	32.41	-1
0	99848	32.51	-1
0	100165	32.61	-1
0	100482	32.71	-1
0	100799	32.81	-1
0	101116	32.91	-1
0	101439	33.01	-1
0	101756	33.11	-1
0	102073	33.21	-1
0	102390	33.31	-1
0	102707	33.41	-1
0	103024	33.51	-1
0	103341	33.61	-1
0	103658	33.71	-1
0	103975	33.81	-1
0	104292	33.91	-1
0	104615	34.01	-1
0	104932	34.11	-1
0	105249	34.21	-1
0	105566	34.31	-1
0	105883	34.41	-1
0	106200	34.51	-1
0	106517	34.61	-1
0	106834	34.71	-1
0	107151	34.81	-1
0	107468	34.91	-1
0	107791	35.01	-1
0	108108	35.11	-1
0	108425	35.21	-1
0	108742	35.31	-1
0	109059	35.41	-1
0	109376	35.51	-1
0	109693	35.61	-1
0	110010	35.71	-1
0	110327	35.81	-1
0	110644	35.91	-1
0	110967	36.01	-1
0	111284	36.11	-1
0	111601	36.21	-1
0	111918	36.31	-1
0	112235	36.41	-1
0	112552	36.51	-1
0	112869	36.61	-1
0	113186	36.71	-1
0	113503	36.81	-1
0	113820	36.91	-1
0	114143	37.01	-1
0	114460	37.11	-1
0	114777	37.21	-1
0	115094	37.31	-1
0	115411	37.41	-1
0	115728	37.51	-1
0	116045	37.61	-1
0	116362	37.71	-1
0	116679	37.81	-1
0	116996	37.91	-1
0	117319	38.01	-1
0	117636	38.11	-1
0	117953	38.21	-1
0	118270	38.31	-1
0	118587	38.41	-1
0	118904	38.51	-1
0	119221	38.61	-1
0	119538	38.71	-1
0	119855	38.81	-1
0	120172	38.91	-1
0	120495	39.01	-1
0	120812	39.11	-1
0	121129	39.21	-1
0	121446	39.31	-1
0	121763	39.41	-1
0	122080	39.51	-1
0	122397	39.61	-1
0	122714	39.71	-1
0	123031	39.81	-1
0	123348	39.91	-1
0	123671	40.01	-1
0	123988	40.11	-1
0	124305	40.21	-1
0	124622	40.31	-1
0	124939	40.41	-1
0	125256	40.51	-1
0	125573	40.61	-1
0	125890	40.71	-1
0	126207	40.81	-1
0	126524	40.91	-1
0	126847	41.01	-1
0	127164	41.11	-1
0	127481	41.21	-1
0	127798	41.31	-1
0	128115	41.41	-1
0	128432	41.51	-1
0	128749	41.61	-1
0	129066	41.71	-1
0	129383	41.81	-1
0	129700	41.91	-1
0	130023	42.01	-1
0	130340	42.11	-1
0	130657	42.21	-1
0	130974	42.31	-1
0	131291	42.41	-1
0	131608	42.51	-1
0	131925	42.61	-1
0	132242	42.71	-1
0	132559	42.81	-1
0	132876	42.91	-1
0	133199	43.01	-1
0	133516	43.11	-1
0	133833	43.21	-1
0	134150	43.31	-1
0	134467	43.41	-1
0	134784	43.51	-1
0	135101	43.61	-1
0	135418	43.71	-1
0	135735	43.81	-1
0	136052	43.91	-1
0	136375	44.01	-1
0	136692	44.11	-1
0	137009	44.21	-1
0	137326	44.31	-1
0	137643	44.41	-1
0	137960	44.51	-1
0	138277	44.61	-1
0	138594	44.71	-1
0	138911	44.81	-1
0	139228	44.91	-1
0	139551	45.01	-1
0	139868	45.11	-1
0	140185	45.21	-1
0	140502	45.31	-1
0	140819	45.41	-1
0	141136	45.51	-1
0	141453	45.61	-1
0	141770	45.71	-1
0	142087	45.81	-1
0	142550	45.91	-1
0	142872	46.01	-1
0	143188	46.11	-1
0	143504	46.21	-1
0	143820	46.31	-1
0	144136	46.41	-1
0	144452	46.51	-1
0	144768	46.61	-1
0	145084	46.71	-1
0	145400	46.81	-1
0	145716	46.91	-1
0	146038	47.01	-1
0	146354	47.11	-1
0	146670	47.21	-1
0	146986	47.31	-1
0	147302	47.41	-1
0	147618	47.51	-1
0	147934	47.61	-1
0	148250	47.71	-1
0	148566	47.81	-1
0	148882	47.91	-1
0	149204	48.01	-1
0	149520	48.11	-1
0	149836	48.21	-1
0	150152	48.31	-1
0	150468	48.41	-1
0	150784	48.51	-1
0	151100	48.61	-1
0	151416	48.71	-1
0	151732	48.81	-1
0	152048	48.91	-1
0	152370	49.01	-1
0	152686	49.11	-1
0	153002	49.21	-1
0	153318	49.31	-1
0	153634	49.41	-1
0	153950	49.51	-1
0	154266	49.61	-1
0	154582	49.71	-1
0	154898	49.81	-1
0	155214	49.91	-1
0	155536	50.01	-1
0	155852	50.11	-1
0	156168	50.21	-1
0	156484	50.31	-1
0	156800	50.41	-1
0	157116	50.51	-1
0	157432	50.61	-1
0	157748	50.71	-1
0	158064	50.81	-1
0	158380	50.91	-1
0	158702	51.01	-1
0	159018	51.11	-1
0	159334	51.21	-1
0	159650	51.31	-1
0	159966	51.41	-1
0	160282	51.51	-1
0	160598	51.61	-1
0	160914	51.71	-1
0	161230	51.81	-1
0	161546	51.91	-1
0	161868	52.01	-1
0	162184	52.11	-1
0	162500	52.21	-1
0	162816	52.31	-1
0	163132	52.41	-1
0	163448	52.51	-1
0	163764	52.61	-1
0	164080	52.71	-1
0	164396	52.81	-1
0	164712	52.91	-1
0	165034	53.01	-1
0	165350	53.11	-1
0	165666	53.21	-1
0	165982	53.31	-1
0	166298	53.41	-1
0	166614	53.51	-1
0	166930	53.61	-1
0	167246	53.71	-1
0	167562	53.81	-1
0	167878	53.91	-1
0	168200	54.01	-1
0	168516	54.11	-1
0	168832	54.21	-1
0	169148	54.31	-1
0	169464	54.41	-1
0	169780	54.51	-1
0	170096	54.61	-1
0	170412	54.71	-1
0	170728	54.81	-1
0	171044	54.91	-1
0	171366	55.01	-1
0	171682	55.11	-1
0	171998	55.21	-1
0	172314	55.31	-1
0	172630	55.41	-1
0	172946	55.51	-1
0	173262	55.61	-1
0	173578	55.71	-1
0	173894	55.81	-1
0	174210	55.91	-1
0	174532	56.01	-1
0	174848	56.11	-1
0	175164	56.21	-1
0	175480	56.31	-1
0	175796	56.41	-1
0	176112	56.51	-1
0	176428	56.61	-1
0	176744	56.71	-1
0	177060	56.81	-1
0	177376	56.91	-1
0	177698	57.01	-1
0	178014	57.11	-1
0	178330	57.21	-1
0	178646	57.31	-1
0	178962	57.41	-1
0	179278	57.51	-1
0	179594	57.61	-1
0	179910	57.71	-1
0	180226	57.81	-1
0	180542	57.91	-1
0	180864	58.01	-1
0	181180	58.11	-1
0	181496	58.21	-1
0	181812	58.31	-1
0	182128	58.41	-1
0	182444	58.51	-1
0	182760	58.61	-1
0	183076	58.71	-1
0	183392	58.81	-1
0	183708	58.91	-1
0	184030	59.01	-1
0	184346	59.11	-1
0	184662	59.21	-1
0	184978	59.31	-1
0	185294	59.41	-1
0	185610	59.51	-1
0	185926	59.61	-1
0	186242	59.71	-1
0	186558	59.81	-1
0	186874	59.91	-1
0	187196	60.01	-1
0	187512	60.11	-1
0	187828	60.21	-1
0	188144	60.31	-1
0	188460	60.41	-1
0	188776	60.51	-1
0	189092	60.61	-1
0	189408	60.71	-1
0	189724	60.81	-1
0	190040	60.91	-1
0	190362	61.01	-1
0	190678	61.11	-1
0	190994	61.21	-1
0	191310	61.31	-1
0	191626	61.41	-1
0	191942	61.51	-1
0	192258	61.61	-1
0	192574	61.71	-1
0	192890	61.81	-1
0	193206	61.91	-1
0	193528	62.01	-1
0	193844	62.11	-1
0	194160	62.21	-1
0	194476	62.31	-1
0	194792	62.41	-1
0	195108	62.51	-1
0	195424	62.61	-1
0	195740	62.71	-1
0	196056	62.81	-1
0	196372	62.91	-1
0	196694	63.01	-1
0	197010	63.11	-1
0	197326	63.21	-1
0	197642	63.31	-1
0	197958	63.41	-1
0	198274	63.51	-1
0	198590	63.61	-1
0	198906	63.71	-1
0	199222	63.81	-1
0	199538	63.91	-1
0	199860	64.01	-1
0	200176	64.11	-1
0	200492	64.21	-1
0	200808	64.31	-1
0	201124	64.41	-1
0	201440	64.51	-1
0	201756	64.61	-1
0	202072	64.71	-1
0	202388	64.81	-1
0	202704	64.91	-1
0	203026	65.01	-1
0	203342	65.11	-1
0	203658	65.21	-1
0	203974	65.31	-1
0	204290	65.41	-1
0	204606	65.51	-1
0	204922	65.61	-1
0	205238	65.71	-1
0	205554	65.81	-1
0	205870	65.91	-1
0	206192	66.01	-1
0	206508	66.11	-1
0	206824	66.21	-1
0	207140	66.31	-1
0	207456	66.41	-1
0	207772	66.51	-1
0	208088	66.61	-1
0	208404	66.71	-1
0	208720	66.81	-1
0	209036	66.91	-1
0	209358	67.01	-1
0	209674	67.11	-1
0	209990	67.21	-1
0	210306	67.31	-1
0	210622	67.41	-1
0	210938	67.51	-1
0	211254	67.61	-1
0	211570	67.71	-1
0	211886	67.81	-1
0	212202	67.91	-1
0	212524	68.01	-1
0	212840	68.11	-1
0	213156	68.21	-1
0	213472	68.31	-1
0	213788	68.41	-1
0	214104	68.51	-1
0	214420	68.61	-1
0	214736	68.71	-1
0	215052	68.81	-1
0	215368	68.91	-1
0	215690	69.01	-1
0	216006	69.11	-1
0	216322	69.21	-1
0	216638	69.31	-1
0	216954	69.41	-1
0	217270	69.51	-1
0	217586	69.61	-1
0	217902	69.71	-1
0	218218	69.81	-1
0	218534	69.91	-1
0	218856	70.01	-1
0	219172	70.11	-1
0	219488	70.21	-1
0	219804	70.31	-1
0	220120	70.41	-1
0	220436	70.51	-1
0	220752	70.61	-1
0	221068	70.71	-1
0	221384	70.81	-1
0	221700	70.91	-1
0	222022	71.01	-1
0	222338	71.11	-1
0	222654	71.21	-1
0	222970	71.31	-1
0	223286	71.41	-1
0	223602	71.51	-1
0	223918	71.61	-1
0	224234	71.71	-1
0	224550	71.81	-1
0	224866	71.91	-1
0	225188	72.01	-1
0	225504	72.11	-1
0	225820	72.21	-1
0	226136	72.31	-1
0	226452	72.41	-1
0	226768	72.51	-1
0	227084	72.61	-1
0	227400	72.71	-1
0	227716	72.81	-1
0	228032	72.91	-1
0	228354	73.01	-1
0	228670	73.11	-1
0	228986	73.21	-1
0	229302	73.31	-1
0	229618	73.41	-1
0	229934	73.51	-1
0	230250	73.61	-1
0	230566	73.71	-1
0	230882	73.81	-1
0	231198	73.91	-1
0	231520	74.01	-1
0	231836	74.11	-1
0	232152	74.21	-1
0	232468	74.31	-1
0	232784	74.41	-1
0	233100	74.51	-1
0	233416	74.61	-1
0	233732	74.71	-1
0	234048	74.81	-1
0	234364	74.91	-1
0	234686	75.01	-1
0	235002	75.11	-1
0	235318	75.21	-1
0	235634	75.31	-1
0	235950	75.41	-1
0	236266	75.51	-1
0	236582	75.61	-1
0	236898	75.71	-1
0	237214	75.81	-1
0	237530	75.91	-1
0	237852	76.01	-1
0	238168	76.11	-1
0	238484	76.21	-1
0	238800	76.31	-1
0	239116	76.41	-1
0	239432	76.51	-1
0	239748	76.61	-1
0	240064	76.71	-1
0	240380	76.81	-1
0	240696	76.91	-1
0	241018	77.01	-1
0	241334	77.11	-1
0	241650	77.21	-1
0	241966	77.31	-1
0	242282	77.41	-1
0	242598	77.51	-1
0	242914	77.61	-1
0	243230	77.71	-1
0	243546	77.81	-1
0	243862	77.91	-1
0	244184	78.01	-1
0	244500	78.11	-1
0	244816	78.21	-1
0	245132	78.31	-1
0	245448	78.41	-1
0	245764	78.51	-1
0	246080	78.61	-1
0	246396	78.71	-1
0	246712	78.81	-1
0	247028	78.91	-1
0	247350	79.01	-1
0	247666	79.11	-1
0	247982	79.21	-1
0	248298	79.31	-1
0	248614	79.41	-1
0	248930	79.51	-1
0	249246	79.61	-1
0	249562	79.71	-1
0	249878	79.81	-1
0	250194	79.91	-1
0	250516	80.01	-1
0	250832	80.11	-1
0	251148	80.21	-1
0	251464	80.31	-1
0	251780	80.41	-1
0	252096	80.51	-1
0	252412	80.61	-1
0	252728	80.71	-1
0	253044	80.81	-1
0	253360	80.91	-1
0	253682	81.01	-1
0	253998	81.11	-1
0	254314	81.21	-1
0	254630	81.31	-1
0	254946	81.41	-1
0	255262	81.51	-1
0	255578	81.61	-1
0	255894	81.71	-1
0	256210	81.81	-1
0	256526	81.91	-1
0	256848	82.01	-1
0	257164	82.11	-1
0	257480	82.21	-1
0	257796	82.31	-1
0	258112	82.41	-1
0	258428	82.51	-1
0	258744	82.61	-1
0	259060	82.71	-1
0	259376	82.81	-1
0	259692	82.91	-1
0	260014	83.01	-1
0	260330	83.11	-1
0	260646	83.21	-1
0	260962	83.31	-1
0	261278	83.41	-1
0	261594	83.51	-1
0	261910	83.61	-1
0	262226	83.71	-1
0	262542	83.81	-1
0	262858	83.91	-1
0	263180	84.01	-1
0	263496	84.11	-1
0	263812	84.21	-1
0	264128	84.31	-1
0	264444	84.41	-1
0	264760	84.51	-1
0	265076	84.61	-1
0	265392	84.71	-1
0	265708	84.81	-1
0	266024	84.91	-1
0	266346	85.01	-1
0	266662	85.11	-1
0	266978	85.21	-1
0	267294	85.31	-1
0	267610	85.41	-1
0	267926	85.51	-1
0	268242	85.61	-1
0	268558	85.71	-1
0	268874	85.81	-1
0	269190	85.91	-1
0	269512	86.01	-1
0	269828	86.11	-1
0	270144	86.21	-1
0	270460	86.31	-1
0	270776	86.41	-1
0	271092	86.51	-1
0	271408	86.61	-1
0	271724	86.71	-1
0	272040	86.81	-1
0	272356	86.91	-1
0	272678	87.01	-1
0	272994	87.11	-1
0	273310	87.21	-1
0	273626	87.31	-1
0	273942	87.41	-1
0	274258	87.51	-1
0	274574	87.61	-1
0	274890	87.71	-1
0	275206	87.81	-1
0	275522	87.91	-1
0	275844	88.01	-1
0	276160	88.11	-1
0	276476	88.21	-1
0	276792	88.31	-1
0	277108	88.41	-1
0	277424	88.51	-1
0	277740	88.61	-1
0	278056	88.71	-1
0	278372	88.81	-1
0	278688	88.91	-1
0	279010	89.01	-1
0	279326	89.11	-1
0	279642	89.21	-1
0	279958	89.31	-1
0	280274	89.41	-1
0	280590	89.51	-1
0	280906	89.61	-1
0	281222	89.71	-1
0	281538	89.81	-1
0	281854	89.91	-1
0	282176	90.01	-1
0	282492	90.11	-1
0	282808	90.21	-1
0	283124	90.31	-1
0	283440	90.41	-1
0	283756	90.51	-1
0	284072	90.61	-1
0	284388	90.71	-1
0	284704	90.81	-1
0	285020	90.91	-1
0	285342	91.01	-1
0	285658	91.11	-1
0	285974	91.21	-1
0	286290	91.31	-1
0	286606	91.41	-1
0	286922	91.51	-1
0	287238	91.61	-1
0	287554	91.71	-1
0	287870	91.81	-1
0	288186	91.91	-1
0	288508	92.01	-1
0	288824	92.11	-1
0	289140	92.21	-1
0	289456	92.31	-1
0	289772	92.41	-1
0	290088	92.51	-1
0	290404	92.61	-1
0	290720	92.71	-1
0	291036	92.81	-1
0	291352	92.91	-1
0	291674	93.01	-1
0	291990	93.11	-1
0	292306	93.21	-1
0	292622	93.31	-1
0	292938	93.41	-1
0	293254	93.51	-1
0	293570	93.61	-1
0	293886	93.71	-1
0	294202	93.81	-1
0	294518	93.91	-1
0	294840	94.01	-1
0	295156	94.11	-1
0	295472	94.21	-1
0	295788	94.31	-1
0	296104	94.41	-1
0	296420	94.51	-1
0	296736	94.61	-1
0	297052	94.71	-1
0	297368	94.81	-1
0	297684	94.91	-1
0	298006	95.01	-1
0	298322	95.11	-1
0	298638	95.21	-1
0	298954	95.31	-1
0	299270	95.41	-1
0	299586	95.51	-1
0	299902	95.61	-1
0	300218	95.71	-1
0	300534	95.81	-1
0	300850	95.91	-1
0	301172	96.01	-1
0	301488	96.11	-1
0	301804	96.21	-1
0	302120	96.31	-1
0	302436	96.41	-1
0	302752	96.51	-1
0	303068	96.61	-1
0	303384	96.71	-1
0	303700	96.81	-1
0	304016	96.91	-1
0	304338	97.01	-1
0	304654	97.11	-1
0	304970	97.21	-1
0	305286	97.31	-1
0	305602	97.41	-1
0	305918	97.51	-1
0	306234	97.61	-1
0	306550	97.71	-1
0	306866	97.81	-1
0	307182	97.91	-1
0	307504	98.01	-1
0	307820	98.11	-1
0	308136	98.21	-1
0	308452	98.31	-1
0	308768	98.41	-1
0	309084	98.51	-1
0	309400	98.61	-1
0	309716	98.71	-1
0	310032	98.81	-1
0	310348	98.91	-1
0	310670	99.01	-1
0	310986	99.11	-1
0	311302	99.21	-1
0	311618	99.31	-1
0	311934	99.41	-1
0	312250	99.51	-1
0	312566	99.61	-1
0	312882	99.71	-1
0	313198	99.81	-1
0	313514	99.91	-1
1	113	1.11	0
1	429	1.21	0
1	745	1.31	0
1	1061	1.41	0
1	1377	1.51	0
1	1693	1.61	0
1	2009	1.71	0
1	2325	1.81	0
1	2641	1.91	0
1	2963	2.01	0
1	3279	2.11	0
1	3595	2.21	0
1	3911	2.31	0
1	4227	2.41	0
1	4543	2.51	0
1	4859	2.61	0
1	5175	2.71	0
1	5491	2.81	0
1	5807	2.91	0
1	6129	3.01	0
1	6445	3.11	0
1	6761	3.21	0
1	7077	3.31	0
1	7393	3.41	0
1	7709	3.51	0
1	8025	3.61	0
1	8341	3.71	0
1	8657	3.81	0
1	8973	3.91	0
1	9295	4.01	0
1	9611	4.11	0
1	9927	4.21	0
1	10243	4.31	0
1	10559	4.41	0
1	10875	4.51	0
1	11191	4.61	0
1	11507	4.71	0
1	11823	4.81	0
1	12139	4.91	0
1	12461	5.01	0
1	12777	5.11	0
1	13093	5.21	0
1	13409	5.31	0
1	13725	5.41	0
1	14041	5.51	0
1	14357	5.61	0
1	14673	5.71	0
1	14989	5.81	0
1	15305	5.91	0
1	15627	6.01	0
1	15943	6.11	0
1	16259	6.21	0
1	16575	6.31	0
1	16891	6.41	0
1	17207	6.51	0
1	17523	6.61	0
1	17839	6.71	0
1	18155	6.81	0
1	18471	6.91	0
1	18793	7.01	0
1	19109	7.11	0
1	19425	7.21	0
1	19741	7.31	0
1	20057	7.41	0
1	20373	7.51	0
1	20689	7.61	0
1	21005	7.71	0
1	21321	7.81	0
1	21637	7.91	0
1	21959	8.01	0
1	22275	8.11	0
1	22591	8.21	0
1	22907	8.31	0
1	23223	8.41	0
1	23539	8.51	0
1	23855	8.61	0
1	24171	8.71	0
1	24487	8.81	0
1	24803	8.91	0
1	25125	9.01	0
1	25441	9.11	0
1	25757	9.21	0
1	26073	9.31	0
1	26389	9.41	0
1	26705	9.51	0
1	27021	9.61	0
1	27337	9.71	0
1	27653	9.81	0
1	27969	9.91	0
1	28391	10.01	0
1	28708	10.11	0
1	29025	10.21	0
1	29342	10.31	0
1	29659	10.41	0
1	29976	10.51	0
1	30293	10.61	0
1	30610	10.71	0
1	30927	10.81	0
1	31244	10.91	0
1	31567	11.01	0
1	31884	11.11	0
1	32201	11.21	0
1	32518	11.31	0
1	32835	11.41	0
1	33152	11.51	0
1	33469	11.61	0
1	33786	11.71	0
1	34103	11.81	0
1	34420	11.91	0
1	34743	12.01	0
1	35060	12.11	0
1	35377	12.21	0
1	35694	12.31	0
1	36011	12.41	0
1	36328	12.51	0
1	36645	12.61	0
1	36962	12.71	0
1	37279	12.81	0
1	37596	12.91	0
1	37919	13.01	0
1	38236	13.11	0
1	38553	13.21	0
1	38870	13.31	0
1	39187	13.41	0
1	39504	13.51	0
1	39821	13.61	0
1	40138	13.71	0
1	40455	13.81	0
1	40772	13.91	0
1	41095	14.01	0
1	41412	14.11	0
1	41729	14.21	0
1	42046	14.31	0
1	42363	14.41	0
1	42680	14.51	0
1	42997	14.61	0
1	43314	14.71	0
1	43631	14.81	0
1	43948	14.91	0
1	44271	15.01	0
1	44588	15.11	0
1	44905	15.21	0
1	45222	15.31	0
1	45539	15.41	0
1	45856	15.51	0
1	46173	15.61	0
1	46490	15.71	0
1	46807	15.81	0
1	47124	15.91	0
1	47447	16.01	0
1	47764	16.11	0
1	48081	16.21	0
1	48398	16.31	0
1	48715	16.41	0
1	49032	16.51	0
1	49349	16.61	0
1	49666	16.71	0
1	49983	16.81	0
1	50300	16.91	0
1	50623	17.01	0
1	50940	17.11	0
1	51257	17.21	0
1	51574	17.31	0
1	51891	17.41	0
1	52208	17.51	0
1	52525	17.61	0
1	52842	17.71	0
1	53159	17.81	0
1	53476	17.91	0
1	53799	18.01	0
1	54116	18.11	0
1	54433	18.21	0
1	54750	18.31	0
1	55067	18.41	0
1	55384	18.51	0
1	55701	18.61	0
1	56018	18.71	0
1	56335	18.81	0
1	56652	18.91	0
1	56975	19.01	0
1	57292	19.11	0
1	57609	19.21	0
1	57926	19.31	0
1	58243	19.41	0
1	58560	19.51	0
1	58877	19.61	0
1	59194	19.71	0
1	59511	19.81	0
1	59828	19.91	0
1	60151	20.01	0
1	60468	20.11	0
1	60785	20.21	0
1	61102	20.31	0
1	61419	20.41	0
1	61736	20.51	0
1	62053	20.61	0
1	62370	20.71	0
1	62687	20.81	0
1	63004	20.91	0
1	63327	21.01	0
1	63644	21.11	0
1	63961	21.21	0
1	64278	21.31	0
1	64595	21.41	0
1	64912	21.51	0
1	65229	21.61	0
1	65546	21.71	0
1	65863	21.81	0
1	66180	21.91	0
1	66503	22.01	0
1	66820	22.11	0
1	67137	22.21	0
1	67454	22.31	0
1	67771	22.41	0
1	68088	22.51	0
1	68405	22.61	0
1	68722	22.71	0
1	69039	22.81	0
1	69356	22.91	0
1	69679	23.01	0
1	69996	23.11	0
1	70313	23.21	0
1	70630	23.31	0
1	70947	23.41	0
1	71264	23.51	0
1	71581	23.61	0
1	71898	23.71	0
1	72215	23.81	0
1	72532	23.91	0
1	72855	24.01	0
1	73172	24.11	0
1	73489	24.21	0
1	73806	24.31	0
1	74123	24.41	0
1	74440	24.51	0
1	74757	24.61	0
1	75074	24.71	0
1	75391	24.81	0
1	75708	24.91	0
1	76031	25.01	0
1	76348	25.11	0
1	76665	25.21	0
1	76982	25.31	0
1	77299	25.41	0
1	77616	25.51	0
1	77933	25.61	0
1	78250	25.71	0
1	78567	25.81	0
1	78884	25.91	0
1	79207	26.01	0
1	79524	26.11	0
1	79841	26.21	0
1	80158	26.31	0
1	80475	26.41	0
1	80792	26.51	0
1	81109	26.61	0
1	81426	26.71	0
1	81743	26.81	0
1	82060	26.91	0
1	82383	27.01	0
1	82700	27.11	0
1	83017	27.21	0
1	83334	27.31	0
1	83651	27.41	0
1	83968	27.51	0
1	84285	27.61	0
1	84602	27.71	0
1	84919	27.81	0
1	85236	27.91	0
1	85559	28.01	0
1	85876	28.11	0
1	86193	28.21	0
1	86510	28.31	0
1	86827	28.41	0
1	87144	28.51	0
1	87461	28.61	0
1	87778	28.71	0
1	88095	28.81	0
1	88412	28.91	0
1	88735	29.01	0
1	89052	29.11	0
1	89369	29.21	0
1	89686	29.31	0
1	90003	29.41	0
1	90320	29.51	0
1	90637	29.61	0
1	90954	29.71	0
1	91271	29.81	0
1	91588	29.91	0
1	91911	30.01	0
1	92228	30.11	0
1	92545	30.21	0
1	92862	30.31	0
1	93179	30.41	0
1	93496	30.51	0
1	93813	30.61	0
1	94130	30.71	0
1	94447	30.81	0
1	94764	30.91	0
1	95087	31.01	0
1	95404	31.11	0
1	95721	31.21	0
1	96038	31.31	0
1	96355	31.41	0
1	96672	31.51	0
1	96989	31.61	0
1	97306	31.71	0
1	97623	31.81	0
1	97940	31.91	0
1	98263	32.01	0
1	98580	32.11	0
1	98897	32.21	0
1	99214	32.31	0
1	99531	32.41	0
1	99848	32.51	0
1	100165	32.61	0
1	100482	32.71	0
1	100799	32.81	0
1	101116	32.91	0
1	101439	33.01	0
1	101756	33.11	0
1	102073	33.21	0
1	102390	33.31	0
1	102707	33.41	0
1	103024	33.51	0
1	103341	33.61	0
1	103658	33.71	0
1	103975	33.81	0
1	104292	33.91	0
1	104615	34.01	0
1	104932	34.11	0
1	105249	34.21	0
1	105566	34.31	0
1	105883	34.41	0
1	106200	34.51	0
1	106517	34.61	0
1	106834	34.71	0
1	107151	34.81	0
1	107468	34.91	0
1	107791	35.01	0
1	108108	35.11	0
1	108425	35.21	0
1	108742	35.31	0
1	109059	35.41	0
1	109376	35.51	0
1	109693	35.61	0
1	110010	35.71	0
1	110327	35.81	0
1	110644	35.91	0
1	110967	36.01	0
1	111284	36.11	0
1	111601	36.21	0
1	111918	36.31	0
1	112235	36.41	0
1	112552	36.51	0
1	112869	36.61	0
1	113186	36.71	0
1	113503	36.81	0
1	113820	36.91	0
1	114143	37.01	0
1	114460	37.11	0
1	114777	37.21	0
1	115094	37.31	0
1	115411	37.41	0
1	115728	37.51	0
1	116045	37.61	0
1	116362	37.71	0
1	116679	37.81	0
1	116996	37.91	0
1	117319	38.01	0
1	117636	38.11	0
1	117953	38.21	0
1	118270	38.31	0
1	118587	38.41	0
1	118904	38.51	0
1	119221	38.61	0
1	119538	38.71	0
1	119855	38.81	0
1	120172	38.91	0
1	120495	39.01	0
1	120812	39.11	0
1	121129	39.21	0
1	121446	39.31	0
1	121763	39.41	0
1	122080	39.51	0
1	122397	39.61	0
1	122714	39.71	0
1	123031	39.81	0
1	123348	39.91	0
1	123671	40.01	0
1	123988	40.11	0
1	124305	40.21	0
1	124622	40.31	0
1	124939	40.41	0
1	125256	40.51	0
1	125573	40.61	0
1	125890	40.71	0
1	126207	40.81	0
1	126524	40.91	0
1	126847	41.01	0
1	127164	41.11	0
1	127481	41.21	0
1	127798	41.31	0
1	128115	41.41	0
1	128432	41.51	0
1	128749	41.61	0
1	129066	41.71	0
1	129383	41.81	0
1	129700	41.91	0
1	130023	42.01	0
1	130340	42.11	0
1	130657	42.21	0
1	130974	42.31	0
1	131291	42.41	0
1	131608	42.51	0
1	131925	42.61	0
1	132242	42.71	0
1	132559	42.81	0
1	132876	42.91	0
1	133199	43.01	0
1	133516	43.11	0
1	133833	43.21	0
1	134150	43.31	0
1	134467	43.41	0
1	134784	43.51	0
1	135101	43.61	0
1	135418	43.71	0
1	135735	43.81	0
1	136052	43.91	0
1	136375	44.01	0
1	136692	44.11	0
1	137009	44.21	0
1	137326	44.31	0
1	137643	44.41	0
1	137960	44.51	0
1	138277	44.61	0
1	138594	44.71	0
1	138911	44.81	0
1	139228	44.91	0
1	139551	45.01	0
1	139868	45.11	0
1	140185	45.21	0
1	140502	45.31	0
1	140819	45.41	0
1	141136	45.51	0
1	141453	45.61	0
1	141770	45.71	0
1	142087	45.81	0
1	142550	45.91	0
1	142872	46.01	0
1	143188	46.11	0
1	143504	46.21	0
1	143820	46.31	0
1	144136	46.41	0
1	144452	46.51	0
1	144768	46.61	0
1	145084	46.71	0
1	145400	46.81	0
1	145716	46.91	0
1	146038	47.01	0
1	146354	47.11	0
1	146670	47.21	0
1	146986	47.31	0
1	147302	47.41	0
1	147618	47.51	0
1	147934	47.61	0
1	148250	47.71	0
1	148566	47.81	0
1	148882	47.91	0
1	149204	48.01	0
1	149520	48.11	0
1	149836	48.21	0
1	150152	48.31	0
1	150468	48.41	0
1	150784	48.51	0
1	151100	48.61	0
1	151416	48.71	0
1	151732	48.81	0
1	152048	48.91	0
1	152370	49.01	0
1	152686	49.11	0
1	153002	49.21	0
1	153318	49.31	0
1	153634	49.41	0
1	153950	49.51	0
1	154266	49.61	0
1	154582	49.71	0
1	154898	49.81	0
1	155214	49.91	0
1	155536	50.01	0
1	155852	50.11	0
1	156168	50.21	0
1	156484	50.31	0
1	156800	50.41	0
1	157116	50.51	0
1	157432	50.61	0
1	157748	50.71	0
1	158064	50.81	0
1	158380	50.91	0
1	158702	51.01	0
1	159018	51.11	0
1	159334	51.21	0
1	159650	51.31	0
1	159966	51.41	0
1	160282	51.51	0
1	160598	51.61	0
1	160914	51.71	0
1	161230	51.81	0
1	161546	51.91	0
1	161868	52.01	0
1	162184	52.11	0
1	162500	52.21	0
1	162816	52.31	0
1	163132	52.41	0
1	163448	52.51	0
1	163764	52.61	0
1	164080	52.71	0
1	164396	52.81	0
1	164712	52.91	0
1	165034	53.01	0
1	165350	53.11	0
1	165666	53.21	0
1	165982	53.31	0
1	166298	53.41	0
1	166614	53.51	0
1	166930	53.61	0
1	167246	53.71	0
1	167562	53.81	0
1	167878	53.91	0
1	168200	54.01	0
1	168516	54.11	0
1	168832	54.21	0
1	169148	54.31	0
1	169464	54.41	0
1	169780	54.51	0
1	170096	54.61	0
1	170412	54.71	0
1	170728	54.81	0
1	171044	54.91	0
1	171366	55.01	0
1	171682	55.11	0
1	171998	55.21	0
1	172314	55.31	0
1	172630	55.41	0
1	172946	55.51	0
1	173262	55.61	0
1	173578	55.71	0
1	173894	55.81	0
1	174210	55.91	0
1	174532	56.01	0
1	174848	56.11	0
1	175164	56.21	0
1	175480	56.31	0
1	175796	56.41	0
1	176112	56.51	0
1	176428	56.61	0
1	176744	56.71	0
1	177060	56.81	0
1	177376	56.91	0
1	177698	57.01	0
1	178014	57.11	0
1	178330	57.21	0
1	178646	57.31	0
1	178962	57.41	0
1	179278	57.51	0
1	179594	57.61	0
1	179910	57.71	0
1	180226	57.81	0
1	180542	57.91	0
1	180864	58.01	0
1	181180	58.11	0
1	181496	58.21	0
1	181812	58.31	0
1	182128	58.41	0
1	182444	58.51	0
1	182760	58.61	0
1	183076	58.71	0
1	183392	58.81	0
1	183708	58.91	0
1	184030	59.01	0
1	184346	59.11	0
1	184662	59.21	0
1	184978	59.31	0
1	185294	59.41	0
1	185610	59.51	0
1	185926	59.61	0
1	186242	59.71	0
1	186558	59.81	0
1	186874	59.91	0
1	187196	60.01	0
1	187512	60.11	0
1	187828	60.21	0
1	188144	60.31	0
1	188460	60.41	0
1	188776	60.51	0
1	189092	60.61	0
1	189408	60.71	0
1	189724	60.81	0
1	190040	60.91	0
1	190362	61.01	0
1	190678	61.11	0
1	190994	61.21	0
1	191310	61.31	0
1	191626	61.41	0
1	191942	61.51	0
1	192258	61.61	0
1	192574	61.71	0
1	192890	61.81	0
1	193206	61.91	0
1	193528	62.01	0
1	193844	62.11	0
1	194160	62.21	0
1	194476	62.31	0
1	194792	62.41	0
1	195108	62.51	0
1	195424	62.61	0
1	195740	62.71	0
1	196056	62.81	0
1	196372	62.91	0
1	196694	63.01	0
1	197010	63.11	0
1	197326	63.21	0
1	197642	63.31	0
1	197958	63.41	0
1	198274	63.51	0
1	198590	63.61	0
1	198906	63.71	0
1	199222	63.81	0
1	199538	63.91	0
1	199860	64.01	0
1	200176	64.11	0
1	200492	64.21	0
1	200808	64.31	0
1	201124	64.41	0
1	201440	64.51	0
1	201756	64.61	0
1	202072	64.71	0
1	202388	64.81	0
1	202704	64.91	0
1	203026	65.01	0
1	203342	65.11	0
1	203658	65.21	0
1	203974	65.31	0
1	204290	65.41	0
1	204606	65.51	0
1	204922	65.61	0
1	205238	65.71	0
1	205554	65.81	0
1	205870	65.91	0
1	206192	66.01	0
1	206508	66.11	0
1	206824	66.21	0
1	207140	66.31	0
1	207456	66.41	0
1	207772	66.51	0
1	208088	66.61	0
1	208404	66.71	0
1	208720	66.81	0
1	209036	66.91	0
1	209358	67.01	0
1	209674	67.11	0
1	209990	67.21	0
1	210306	67.31	0
1	210622	67.41	0
1	210938	67.51	0
1	211254	67.61	0
1	211570	67.71	0
1	211886	67.81	0
1	212202	67.91	0
1	212524	68.01	0
1	212840	68.11	0
1	213156	68.21	0
1	213472	68.31	0
1	213788	68.41	0
1	214104	68.51	0
1	214420	68.61	0
1	214736	68.71	0
1	215052	68.81	0
1	215368	68.91	0
1	215690	69.01	0
1	216006	69.11	0
1	216322	69.21	0
1	216638	69.31	0
1	216954	69.41	0
1	217270	69.51	0
1	217586	69.61	0
1	217902	69.71	0
1	218218	69.81	0
1	218534	69.91	0
1	218856	70.01	0
1	219172	70.11	0
1	219488	70.21	0
1	219804	70.31	0
1	220120	70.41	0
1	220436	70.51	0
1	220752	70.61	0
1	221068	70.71	0
1	221384	70.81	0
1	221700	70.91	0
1	222022	71.01	0
1	222338	71.11	0
1	222654	71.21	0
1	222970	71.31	0
1	223286	71.41	0
1	223602	71.51	0
1	223918	71.61	0
1	224234	71.71	0
1	224550	71.81	0
1	224866	71.91	0
1	225188	72.01	0
1	225504	72.11	0
1	225820	72.21	0
1	226136	72.31	0
1	226452	72.41	0
1	226768	72.51	0
1	227084	72.61	0
1	227400	72.71	0
1	227716	72.81	0
1	228032	72.91	0
1	228354	73.01	0
1	228670	73.11	0
1	228986	73.21	0
1	229302	73.31	0
1	229618	73.41	0
1	229934	73.51	0
1	230250	73.61	0
1	230566	73.71	0
1	230882	73.81	0
1	231198	73.91	0
1	231520	74.01	0
1	231836	74.11	0
1	232152	74.21	0
1	232468	74.31	0
1	232784	74.41	0
1	233100	74.51	0
1	233416	74.61	0
1	233732	74.71	0
1	234048	74.81	0
1	234364	74.91	0
1	234686	75.01	0
1	235002	75.11	0
1	235318	75.21	0
1	235634	75.31	0
1	235950	75.41	0
1	236266	75.51	0
1	236582	75.61	0
1	236898	75.71	0
1	237214	75.81	0
1	237530	75.91	0
1	237852	76.01	0
1	238168	76.11	0
1	238484	76.21	0
1	238800	76.31	0
1	239116	76.41	0
1	239432	76.51	0
1	239748	76.61	0
1	240064	76.71	0
1	240380	76.81	0
1	240696	76.91	0
1	241018	77.01	0
1	241334	77.11	0
1	241650	77.21	0
1	241966	77.31	0
1	242282	77.41	0
1	242598	77.51	0
1	242914	77.61	0
1	243230	77.71	0
1	243546	77.81	0
1	243862	77.91	0
1	244184	78.01	0
1	244500	78.11	0
1	244816	78.21	0
1	245132	78.31	0
1	245448	78.41	0
1	245764	78.51	0
1	246080	78.61	0
1	246396	78.71	0
1	246712	78.81	0
1	247028	78.91	0
1	247350	79.01	0
1	247666	79.11	0
1	247982	79.21	0
1	248298	79.31	0
1	248614	79.41	0
1	248930	79.51	0
1	249246	79.61	0
1	249562	79.71	0
1	249878	79.81	0
1	250194	79.91	0
1	250516	80.01	0
1	250832	80.11	0
1	251148	80.21	0
1	251464	80.31	0
1	251780	80.41	0
1	252096	80.51	0
1	252412	80.61	0
1	252728	80.71	0
1	253044	80.81	0
1	253360	80.91	0
1	253682	81.01	0
1	253998	81.11	0
1	254314	81.21	0
1	254630	81.31	0
1	254946	81.41	0
1	255262	81.51	0
1	255578	81.61	0
1	255894	81.71	0
1	256210	81.81	0
1	256526	81.91	0
1	256848	82.01	0
1	257164	82.11	0
1	257480	82.21	0
1	257796	82.31	0
1	258112	82.41	0
1	258428	82.51	0
1	258744	82.61	0
1	259060	82.71	0
1	259376	82.81	0
1	259692	82.91	0
1	260014	83.01	0
1	260330	83.11	0
1	260646	83.21	0
1	260962	83.31	0
1	261278	83.41	0
1	261594	83.51	0
1	261910	83.61	0
1	262226	83.71	0
1	262542	83.81	0
1	262858	83.91	0
1	263180	84.01	0
1	263496	84.11	0
1	263812	84.21	0
1	264128	84.31	0
1	264444	84.41	0
1	264760	84.51	0
1	265076	84.61	0
1	265392	84.71	0
1	265708	84.81	0
1	266024	84.91	0
1	266346	85.01	0
1	266662	85.11	0
1	266978	85.21	0
1	267294	85.31	0
1	267610	85.41	0
1	267926	85.51	0
1	268242	85.61	0
1	268558	85.71	0
1	268874	85.81	0
1	269190	85.91	0
1	269512	86.01	0
1	269828	86.11	0
1	270144	86.21	0
1	270460	86.31	0
1	270776	86.41	0
1	271092	86.51	0
1	271408	86.61	0
1	271724	86.71	0
1	272040	86.81	0
1	272356	86.91	0
1	272678	87.01	0
1	272994	87.11	0
1	273310	87.21	0
1	273626	87.31	0
1	273942	87.41	0
1	274258	87.51	0
1	274574	87.61	0
1	274890	87.71	0
1	275206	87.81	0
1	275522	87.91	0
1	275844	88.01	0
1	276160	88.11	0
1	276476	88.21	0
1	276792	88.31	0
1	277108	88.41	0
1	277424	88.51	0
1	277740	88.61	0
1	278056	88.71	0
1	278372	88.81	0
1	278688	88.91	0
1	279010	89.01	0
1	279326	89.11	0
1	279642	89.21	0
1	279958	89.31	0
1	280274	89.41	0
1	280590	89.51	0
1	280906	89.61	0
1	281222	89.71	0
1	281538	89.81	0
1	281854	89.91	0
1	282176	90.01	0
1	282492	90.11	0
1	282808	90.21	0
1	283124	90.31	0
1	283440	90.41	0
1	283756	90.51	0
1	284072	90.61	0
1	284388	90.71	0
1	284704	90.81	0
1	285020	90.91	0
1	285342	91.01	0
1	285658	91.11	0
1	285974	91.21	0
1	286290	91.31	0
1	286606	91.41	0
1	286922	91.51	0
1	287238	91.61	0
1	287554	91.71	0
1	287870	91.81	0
1	288186	91.91	0
1	288508	92.01	0
1	288824	92.11	0
1	289140	92.21	0
1	289456	92.31	0
1	289772	92.41	0
1	290088	92.51	0
1	290404	92.61	0
1	290720	92.71	0
1	291036	92.81	0
1	291352	92.91	0
1	291674	93.01	0
1	291990	93.11	0
1	292306	93.21	0
1	292622	93.31	0
1	292938	93.41	0
1	293254	93.51	0
1	293570	93.61	0
1	293886	93.71	0
1	294202	93.81	0
1	294518	93.91	0
1	294840	94.01	0
1	295156	94.11	0
1	295472	94.21	0
1	295788	94.31	0
1	296104	94.41	0
1	296420	94.51	0
1	296736	94.61	0
1	297052	94.71	0
1	297368	94.81	0
1	297684	94.91	0
1	298006	95.01	0
1	298322	95.11	0
1	298638	95.21	0
1	298954	95.31	0
1	299270	95.41	0
1	299586	95.51	0
1	299902	95.61	0
1	300218	95.71	0
1	300534	95.81	0
1	300850	95.91	0
1	301172	96.01	0
1	301488	96.11	0
1	301804	96.21	0
1	302120	96.31	0
1	302436	96.41	0
1	302752	96.51	0
1	303068	96.61	0
1	303384	96.71	0
1	303700	96.81	0
1	304016	96.91	0
1	304338	97.01	0
1	304654	97.11	0
1	304970	97.21	0
1	305286	97.31	0
1	305602	97.41	0
1	305918	97.51	0
1	306234	97.61	0
1	306550	97.71	0
1	306866	97.81	0
1	307182	97.91	0
1	307504	98.01	0
1	307820	98.11	0
1	308136	98.21	0
1	308452	98.31	0
1	308768	98.41	0
1	309084	98.51	0
1	309400	98.61	0
1	309716	98.71	0
1	310032	98.81	0
1	310348	98.91	0
1	310670	99.01	0
1	310986	99.11	0
1	311302	99.21	0
1	311618	99.31	0
1	311934	99.41	0
1	312250	99.51	0
1	312566	99.61	0
1	312882	99.71	0
1	313198	99.81	0
1	313514	99.91	0
2	113	1.11	0
2	429	1.21	0
2	745	1.31	0
2	1061	1.41	0
2	1377	1.51	0
2	1693	1.61	0
2	2009	1.71	0
2	2325	1.81	0
2	2641	1.91	0
2	2963	2.01	0
2	3279	2.11	0
2	3595	2.21	0
2	3911	2.31	0
2	4227	2.41	0
2	4543	2.51	0
2	4859	2.61	0
2	5175	2.71	0
2	5491	2.81	0
2	5807	2.91	0
2	6129	3.01	0
2	6445	3.11	0
2	6761	3.21	0
2	7077	3.31	0
2	7393	3.41	0
2	7709	3.51	0
2	8025	3.61	0
2	8341	3.71	0
2	8657	3.81	0
2	8973	3.91	0
2	9295	4.01	0
2	9611	4.11	0
2	9927	4.21	0
2	10243	4.31	0
2	10559	4.41	0
2	10875	4.51	0
2	11191	4.61	0
2	11507	4.71	0
2	11823	4.81	0
2	12139	4.91	0
2	12461	5.01	0
2	12777	5.11	0
2	13093	5.21	0
2	13409	5.31	0
2	13725	5.41	0
2	14041	5.51	0
2	14357	5.61	0
2	14673	5.71	0
2	14989	5.81	0
2	15305	5.91	0
2	15627	6.01	0
2	15943	6.11	0
2	16259	6.21	0
2	16575	6.31	0
2	16891	6.41	0
2	17207	6.51	0
2	17523	6.61	0
2	17839	6.71	0
2	18155	6.81	0
2	18471	6.91	0
2	18793	7.01	0
2	19109	7.11	0
2	19425	7.21	0
2	19741	7.31	0
2	20057	7.41	0
2	20373	7.51	0
2	20689	7.61	0
2	21005	7.71	0
2	21321	7.81	0
2	21637	7.91	0
2	21959	8.01	0
2	22275	8.11	0
2	22591	8.21	0
2	22907	8.31	0
2	23223	8.41	0
2	23539	8.51	0
2	23855	8.61	0
2	24171	8.71	0
2	24487	8.81	0
2	24803	8.91	0
2	25125	9.01	0
2	25441	9.11	0
2	25757	9.21	0
2	26073	9.31	0
2	26389	9.41	0
2	26705	9.51	0
2	27021	9.61	0
2	27337	9.71	0
2	27653	9.81	0
2	27969	9.91	0
2	28391	10.01	0
2	28708	10.11	0
2	29025	10.21	0
2	29342	10.31	0
2	29659	10.41	0
2	29976	10.51	0
2	30293	10.61	0
2	30610	10.71	0
2	30927	10.81	0
2	31244	10.91	0
2	31567	11.01	0
2	31884	11.11	0
2	32201	11.21	0
2	32518	11.31	0
2	32835	11.41	0
2	33152	11.51	0
2	33469	11.61	0
2	33786	11.71	0
2	34103	11.81	0
2	34420	11.91	0
2	34743	12.01	0
2	35060	12.11	0
2	35377	12.21	0
2	35694	12.31	0
2	36011	12.41	0
2	36328	12.51	0
2	36645	12.61	0
2	36962	12.71	0
2	37279	12.81	0
2	37596	12.91	0
2	37919	13.01	0
2	38236	13.11	0
2	38553	13.21	0
2	38870	13.31	0
2	39187	13.41	0
2	39504	13.51	0
2	39821	13.61	0
2	40138	13.71	0
2	40455	13.81	0
2	40772	13.91	0
2	41095	14.01	0
2	41412	14.11	0
2	41729	14.21	0
2	42046	14.31	0
2	42363	14.41	0
2	42680	14.51	0
2	42997	14.61	0
2	43314	14.71	0
2	43631	14.81	0
2	43948	14.91	0
2	44271	15.01	0
2	44588	15.11	0
2	44905	15.21	0
2	45222	15.31	0
2	45539	15.41	0
2	45856	15.51	0
2	46173	15.61	0
2	46490	15.71	0
2	46807	15.81	0
2	47124	15.91	0
2	47447	16.01	0
2	47764	16.11	0
2	48081	16.21	0
2	48398	16.31	0
2	48715	16.41	0
2	49032	16.51	0
2	49349	16.61	0
2	49666	16.71	0
2	49983	16.81	0
2	50300	16.91	0
2	50623	17.01	0
2	50940	17.11	0
2	51257	17.21	0
2	51574	17.31	0
2	51891	17.41	0
2	52208	17.51	0
2	52525	17.61	0
2	52842	17.71	0
2	53159	17.81	0
2	53476	17.91	0
2	53799	18.01	0
2	54116	18.11	0
2	54433	18.21	0
2	54750	18.31	0
2	55067	18.41	0
2	55384	18.51	0
2	55701	18.61	0
2	56018	18.71	0
2	56335	18.81	0
2	56652	18.91	0
2	56975	19.01	0
2	57292	19.11	0
2	57609	19.21	0
2	57926	19.31	0
2	58243	19.41	0
2	58560	19.51	0
2	58877	19.61	0
2	59194	19.71	0
2	59511	19.81	0
2	59828	19.91	0
2	60151	20.01	0
2	60468	20.11	0
2	60785	20.21	0
2	61102	20.31	0
2	61419	20.41	0
2	61736	20.51	0
2	62053	20.61	0
2	62370	20.71	0
2	62687	20.81	0
2	63004	20.91	0
2	63327	21.01	0
2	63644	21.11	0
2	63961	21.21	0
2	64278	21.31	0
2	64595	21.41	0
2	64912	21.51	0
2	65229	21.61	0
2	65546	21.71	0
2	65863	21.81	0
2	66180	21.91	0
2	66503	22.01	0
2	66820	22.11	0
2	67137	22.21	0
2	67454	22.31	0
2	67771	22.41	0
2	68088	22.51	0
2	68405	22.61	0
2	68722	22.71	0
2	69039	22.81	0
2	69356	22.91	0
2	69679	23.01	0
2	69996	23.11	0
2	70313	23.21	0
2	70630	23.31	0
2	70947	23.41	0
2	71264	23.51	0
2	71581	23.61	0
2	71898	23.71	0
2	72215	23.81	0
2	72532	23.91	0
2	72855	24.01	0
2	73172	24.11	0
2	73489	24.21	0
2	73806	24.31	0
2	74123	24.41	0
2	74440	24.51	0
2	74757	24.61	0
2	75074	24.71	0
2	75391	24.81	0
2	75708	24.91	0
2	76031	25.01	0
2	76348	25.11	0
2	76665	25.21	0
2	76982	25.31	0
2	77299	25.41	0
2	77616	25.51	0
2	77933	25.61	0
2	78250	25.71	0
2	78567	25.81	0
2	78884	25.91	0
2	79207	26.01	0
2	79524	26.11	0
2	79841	26.21	0
2	80158	26.31	0
2	80475	26.41	0
2	80792	26.51	0
2	81109	26.61	0
2	81426	26.71	0
2	81743	26.81	0
2	82060	26.91	0
2	82383	27.01	0
2	82700	27.11	0
2	83017	27.21	0
2	83334	27.31	0
2	83651	27.41	0
2	83968	27.51	0
2	84285	27.61	0
2	84602	27.71	0
2	84919	27.81	0
2	85236	27.91	0
2	85559	28.01	0
2	85876	28.11	0
2	86193	28.21	0
2	86510	28.31	0
2	86827	28.41	0
2	87144	28.51	0
2	87461	28.61	0
2	87778	28.71	0
2	88095	28.81	0
2	88412	28.91	0
2	88735	29.01	0
2	89052	29.11	0
2	89369	29.21	0
2	89686	29.31	0
2	90003	29.41	0
2	90320	29.51	0
2	90637	29.61	0
2	90954	29.71	0
2	91271	29.81	0
2	91588	29.91	0
2	91911	30.01	0
2	92228	30.11	0
2	92545	30.21	0
2	92862	30.31	0
2	93179	30.41	0
2	93496	30.51	0
2	93813	30.61	0
2	94130	30.71	0
2	94447	30.81	0
2	94764	30.91	0
2	95087	31.01	0
2	95404	31.11	0
2	95721	31.21	0
2	96038	31.31	0
2	96355	31.41	0
2	96672	31.51	0
2	96989	31.61	0
2	97306	31.71	0
2	97623	31.81	0
2	97940	31.91	0
2	98263	32.01	0
2	98580	32.11	0
2	98897	32.21	0
2	99214	32.31	0
2	99531	32.41	0
2	99848	32.51	0
2	100165	32.61	0
2	100482	32.71	0
2	100799	32.81	0
2	101116	32.91	0
2	101439	33.01	0
2	101756	33.11	0
2	102073	33.21	0
2	102390	33.31	0
2	102707	33.41	0
2	103024	33.51	0
2	103341	33.61	0
2	103658	33.71	0
2	103975	33.81	0
2	104292	33.91	0
2	104615	34.01	0
2	104932	34.11	0
2	105249	34.21	0
2	105566	34.31	0
2	105883	34.41	0
2	106200	34.51	0
2	106517	34.61	0
2	106834	34.71	0
2	107151	34.81	0
2	107468	34.91	0
2	107791	35.01	0
2	108108	35.11	0
2	108425	35.21	0
2	108742	35.31	0
2	109059	35.41	0
2	109376	35.51	0
2	109693	35.61	0
2	110010	35.71	0
2	110327	35.81	0
2	110644	35.91	0
2	110967	36.01	0
2	111284	36.11	0
2	111601	36.21	0
2	111918	36.31	0
2	112235	36.41	0
2	112552	36.51	0
2	112869	36.61	0
2	113186	36.71	0
2	113503	36.81	0
2	113820	36.91	0
2	114143	37.01	0
2	114460	37.11	0
2	114777	37.21	0
2	115094	37.31	0
2	115411	37.41	0
2	115728	37.51	0
2	116045	37.61	0
2	116362	37.71	0
2	116679	37.81	0
2	116996	37.91	0
2	117319	38.01	0
2	117636	38.11	0
2	117953	38.21	0
2	118270	38.31	0
2	118587	38.41	0
2	118904	38.51	0
2	119221	38.61	0
2	119538	38.71	0
2	119855	38.81	0
2	120172	38.91	0
2	120495	39.01	0
2	120812	39.11	0
2	121129	39.21	0
2	121446	39.31	0
2	121763	39.41	0
2	122080	39.51	0
2	122397	39.61	0
2	122714	39.71	0
2	123031	39.81	0
2	123348	39.91	0
2	123671	40.01	0
2	123988	40.11	0
2	124305	40.21	0
2	124622	40.31	0
2	124939	40.41	0
2	125256	40.51	0
2	125573	40.61	0
2	125890	40.71	0
2	126207	40.81	0
2	126524	40.91	0
2	126847	41.01	0
2	127164	41.11	0
2	127481	41.21	0
2	127798	41.31	0
2	128115	41.41	0
2	128432	41.51	0
2	128749	41.61	0
2	129066	41.71	0
2	129383	41.81	0
2	129700	41.91	0
2	130023	42.01	0
2	130340	42.11	0
2	130657	42.21	0
2	130974	42.31	0
2	131291	42.41	0
2	131608	42.51	0
2	131925	42.61	0
2	132242	42.71	0
2	132559	42.81	0
2	132876	42.91	0
2	133199	43.01	0
2	133516	43.11	0
2	133833	43.21	0
2	134150	43.31	0
2	134467	43.41	0
2	134784	43.51	0
2	135101	43.61	0
2	135418	43.71	0
2	135735	43.81	0
2	136052	43.91	0
2	136375	44.01	0
2	136692	44.11	0
2	137009	44.21	0
2	137326	44.31	0
2	137643	44.41	0
2	137960	44.51	0
2	138277	44.61	0
2	138594	44.71	0
2	138911	44.81	0
2	139228	44.91	0
2	139551	45.01	0
2	139868	45.11	0
2	140185	45.21	0
2	140502	45.31	0
2	140819	45.41	0
2	141136	45.51	0
2	141453	45.61	0
2	141770	45.71	0
2	142087	45.81	0
2	142550	45.91	0
2	142872	46.01	0
2	143188	46.11	0
2	143504	46.21	0
2	143820	46.31	0
2	144136	46.41	0
2	144452	46.51	0
2	144768	46.61	0
2	145084	46.71	0
2	145400	46.81	0
2	145716	46.91	0
2	146038	47.01	0
2	146354	47.11	0
2	146670	47.21	0
2	146986	47.31	0
2	147302	47.41	0
2	147618	47.51	0
2	147934	47.61	0
2	148250	47.71	0
2	148566	47.81	0
2	148882	47.91	0
2	149204	48.01	0
2	149520	48.11	0
2	149836	48.21	0
2	150152	48.31	0
2	150468	48.41	0
2	150784	48.51	0
2	151100	48.61	0
2	151416	48.71	0
2	151732	48.81	0
2	152048	48.91	0
2	152370	49.01	0
2	152686	49.11	0
2	153002	49.21	0
2	153318	49.31	0
2	153634	49.41	0
2	153950	49.51	0
2	154266	49.61	0
2	154582	49.71	0
2	154898	49.81	0
2	155214	49.91	0
2	155536	50.01	0
2	155852	50.11	0
2	156168	50.21	0
2	156484	50.31	0
2	156800	50.41	0
2	157116	50.51	0
2	157432	50.61	0
2	157748	50.71	0
2	158064	50.81	0
2	158380	50.91	0
2	158702	51.01	0
2	159018	51.11	0
2	159334	51.21	0
2	159650	51.31	0
2	159966	51.41	0
2	160282	51.51	0
2	160598	51.61	0
2	160914	51.71	0
2	161230	51.81	0
2	161546	51.91	0
2	161868	52.01	0
2	162184	52.11	0
2	162500	52.21	0
2	162816	52.31	0
2	163132	52.41	0
2	163448	52.51	0
2	163764	52.61	0
2	164080	52.71	0
2	164396	52.81	0
2	164712	52.91	0
2	165034	53.01	0
2	165350	53.11	0
2	165666	53.21	0
2	165982	53.31	0
2	166298	53.41	0
2	166614	53.51	0
2	166930	53.61	0
2	167246	53.71	0
2	167562	53.81	0
2	167878	53.91	0
2	168200	54.01	0
2	168516	54.11	0
2	168832	54.21	0
2	169148	54.31	0
2	169464	54.41	0
2	169780	54.51	0
2	170096	54.61	0
2	170412	54.71	0
2	170728	54.81	0
2	171044	54.91	0
2	171366	55.01	0
2	171682	55.11	0
2	171998	55.21	0
2	172314	55.31	0
2	172630	55.41	0
2	172946	55.51	0
2	173262	55.61	0
2	173578	55.71	0
2	173894	55.81	0
2	174210	55.91	0
2	174532	56.01	0
2	174848	56.11	0
2	175164	56.21	0
2	175480	56.31	0
2	175796	56.41	0
2	176112	56.51	0
2	176428	56.61	0
2	176744	56.71	0
2	177060	56.81	0
2	177376	56.91	0
2	177698	57.01	0
2	178014	57.11	0
2	178330	57.21	0
2	178646	57.31	0
2	178962	57.41	0
2	179278	57.51	0
2	179594	57.61	0
2	179910	57.71	0
2	180226	57.81	0
2	180542	57.91	0
2	180864	58.01	0
2	181180	58.11	0
2	181496	58.21	0
2	181812	58.31	0
2	182128	58.41	0
2	182444	58.51	0
2	182760	58.61	0
2	183076	58.71	0
2	183392	58.81	0
2	183708	58.91	0
2	184030	59.01	0
2	184346	59.11	0
2	184662	59.21	0
2	184978	59.31	0
2	185294	59.41	0
2	185610	59.51	0
2	185926	59.61	0
2	186242	59.71	0
2	186558	59.81	0
2	186874	59.91	0
2	187196	60.01	0
2	187512	60.11	0
2	187828	60.21	0
2	188144	60.31	0
2	188460	60.41	0
2	188776	60.51	0
2	189092	60.61	0
2	189408	60.71	0
2	189724	60.81	0
2	190040	60.91	0
2	190362	61.01	0
2	190678	61.11	0
2	190994	61.21	0
2	191310	61.31	0
2	191626	61.41	0
2	191942	61.51	0
2	192258	61.61	0
2	192574	61.71	0
2	192890	61.81	0
2	193206	61.91	0
2	193528	62.01	0
2	193844	62.11	0
2	194160	62.21	0
2	194476	62.31	0
2	194792	62.41	0
2	195108	62.51	0
2	195424	62.61	0
2	195740	62.71	0
2	196056	62.81	0
2	196372	62.91	0
2	196694	63.01	0
2	197010	63.11	0
2	197326	63.21	0
2	197642	63.31	0
2	197958	63.41	0
2	198274	63.51	0
2	198590	63.61	0
2	198906	63.71	0
2	199222	63.81	0
2	199538	63.91	0
2	199860	64.01	0
2	200176	64.11	0
2	200492	64.21	0
2	200808	64.31	0
2	201124	64.41	0
2	201440	64.51	0
2	201756	64.61	0
2	202072	64.71	0
2	202388	64.81	0
2	202704	64.91	0
2	203026	65.01	0
2	203342	65.11	0
2	203658	65.21	0
2	203974	65.31	0
2	204290	65.41	0
2	204606	65.51	0
2	204922	65.61	0
2	205238	65.71	0
2	205554	65.81	0
2	205870	65.91	0
2	206192	66.01	0
2	206508	66.11	0
2	206824	66.21	0
2	207140	66.31	0
2	207456	66.41	0
2	207772	66.51	0
2	208088	66.61	0
2	208404	66.71	0
2	208720	66.81	0
2	209036	66.91	0
2	209358	67.01	0
2	209674	67.11	0
2	209990	67.21	0
2	210306	67.31	0
2	210622	67.41	0
2	210938	67.51	0
2	211254	67.61	0
2	211570	67.71	0
2	211886	67.81	0
2	212202	67.91	0
2	212524	68.01	0
2	212840	68.11	0
2	213156	68.21	0
2	213472	68.31	0
2	213788	68.41	0
2	214104	68.51	0
2	214420	68.61	0
2	214736	68.71	0
2	215052	68.81	0
2	215368	68.91	0
2	215690	69.01	0
2	216006	69.11	0
2	216322	69.21	0
2	216638	69.31	0
2	216954	69.41	0
2	217270	69.51	0
2	217586	69.61	0
2	217902	69.71	0
2	218218	69.81	0
2	218534	69.91	0
2	218856	70.01	0
2	219172	70.11	0
2	219488	70.21	0
2	219804	70.31	0
2	220120	70.41	0
2	220436	70.51	0
2	220752	70.61	0
2	221068	70.71	0
2	221384	70.81	0
2	221700	70.91	0
2	222022	71.01	0
2	222338	71.11	0
2	222654	71.21	0
2	222970	71.31	0
2	223286	71.41	0
2	223602	71.51	0
2	223918	71.61	0
2	224234	71.71	0
2	224550	71.81	0
2	224866	71.91	0
2	225188	72.01	0
2	225504	72.11	0
2	225820	72.21	0
2	226136	72.31	0
2	226452	72.41	0
2	226768	72.51	0
2	227084	72.61	0
2	227400	72.71	0
2	227716	72.81	0
2	228032	72.91	0
2	228354	73.01	0
2	228670	73.11	0
2	228986	73.21	0
2	229302	73.31	0
2	229618	73.41	0
2	229934	73.51	0
2	230250	73.61	0
2	230566	73.71	0
2	230882	73.81	0
2	231198	73.91	0
2	231520	74.01	0
2	231836	74.11	0
2	232152	74.21	0
2	232468	74.31	0
2	232784	74.41	0
2	233100	74.51	0
2	233416	74.61	0
2	233732	74.71	0
2	234048	74.81	0
2	234364	74.91	0
2	234686	75.01	0
2	235002	75.11	0
2	235318	75.21	0
2	235634	75.31	0
2	235950	75.41	0
2	236266	75.51	0
2	236582	75.61	0
2	236898	75.71	0
2	237214	75.81	0
2	237530	75.91	0
2	237852	76.01	0
2	238168	76.11	0
2	238484	76.21	0
2	238800	76.31	0
2	239116	76.41	0
2	239432	76.51	0
2	239748	76.61	0
2	240064	76.71	0
2	240380	76.81	0
2	240696	76.91	0
2	241018	77.01	0
2	241334	77.11	0
2	241650	77.21	0
2	241966	77.31	0
2	242282	77.41	0
2	242598	77.51	0
2	242914	77.61	0
2	243230	77.71	0
2	243546	77.81	0
2	243862	77.91	0
2	244184	78.01	0
2	244500	78.11	0
2	244816	78.21	0
2	245132	78.31	0
2	245448	78.41	0
2	245764	78.51	0
2	246080	78.61	0
2	246396	78.71	0
2	246712	78.81	0
2	247028	78.91	0
2	247350	79.01	0
2	247666	79.11	0
2	247982	79.21	0
2	248298	79.31	0
2	248614	79.41	0
2	248930	79.51	0
2	249246	79.61	0
2	249562	79.71	0
2	249878	79.81	0
2	250194	79.91	0
2	250516	80.01	0
2	250832	80.11	0
2	251148	80.21	0
2	251464	80.31	0
2	251780	80.41	0
2	252096	80.51	0
2	252412	80.61	0
2	252728	80.71	0
2	253044	80.81	0
2	253360	80.91	0
2	253682	81.01	0
2	253998	81.11	0
2	254314	81.21	0
2	254630	81.31	0
2	254946	81.41	0
2	255262	81.51	0
2	255578	81.61	0
2	255894	81.71	0
2	256210	81.81	0
2	256526	81.91	0
2	256848	82.01	0
2	257164	82.11	0
2	257480	82.21	0
2	257796	82.31	0
2	258112	82.41	0
2	258428	82.51	0
2	258744	82.61	0
2	259060	82.71	0
2	259376	82.81	0
2	259692	82.91	0
2	260014	83.01	0
2	260330	83.11	0
2	260646	83.21	0
2	260962	83.31	0
2	261278	83.41	0
2	261594	83.51	0
2	261910	83.61	0
2	262226	83.71	0
2	262542	83.81	0
2	262858	83.91	0
2	263180	84.01	0
2	263496	84.11	0
2	263812	84.21	0
2	264128	84.31	0
2	264444	84.41	0
2	264760	84.51	0
2	265076	84.61	0
2	265392	84.71	0
2	265708	84.81	0
2	266024	84.91	0
2	266346	85.01	0
2	266662	85.11	0
2	266978	85.21	0
2	267294	85.31	0
2	267610	85.41	0
2	267926	85.51	0
2	268242	85.61	0
2	268558	85.71	0
2	268874	85.81	0
2	269190	85.91	0
2	269512	86.01	0
2	269828	86.11	0
2	270144	86.21	0
2	270460	86.31	0
2	270776	86.41	0
2	271092	86.51	0
2	271408	86.61	0
2	271724	86.71	0
2	272040	86.81	0
2	272356	86.91	0
2	272678	87.01	0
2	272994	87.11	0
2	273310	87.21	0
2	273626	87.31	0
2	273942	87.41	0
2	274258	87.51	0
2	274574	87.61	0
2	274890	87.71	0
2	275206	87.81	0
2	275522	87.91	0
2	275844	88.01	0
2	276160	88.11	0
2	276476	88.21	0
2	276792	88.31	0
2	277108	88.41	0
2	277424	88.51	0
2	277740	88.61	0
2	278056	88.71	0
2	278372	88.81	0
2	278688	88.91	0
2	279010	89.01	0
2	279326	89.11	0
2	279642	89.21	0
2	279958	89.31	0
2	280274	89.41	0
2	280590	89.51	0
2	280906	89.61	0
2	281222	89.71	0
2	281538	89.81	0
2	281854	89.91	0
2	282176	90.01	0
2	282492	90.11	0
2	282808	90.21	0
2	283124	90.31	0
2	283440	90.41	0
2	283756	90.51	0
2	284072	90.61	0
2	284388	90.71	0
2	284704	90.81	0
2	285020	90.91	0
2	285342	91.01	0
2	285658	91.11	0
2	285974	91.21	0
2	286290	91.31	0
2	286606	91.41	0
2	286922	91.51	0
2	287238	91.61	0
2	287554	91.71	0
2	287870	91.81	0
2	288186	91.91	0
2	288508	92.01	0
2	288824	92.11	0
2	289140	92.21	0
2	289456	92.31	0
2	289772	92.41	0
2	290088	92.51	0
2	290404	92.61	0
2	290720	92.71	0
2	291036	92.81	0
2	291352	92.91	0
2	291674	93.01	0
2	291990	93.11	0
2	292306	93.21	0
2	292622	93.31	0
2	292938	93.41	0
2	293254	93.51	0
2	293570	93.61	0
2	293886	93.71	0
2	294202	93.81	0
2	294518	93.91	0
2	294840	94.01	0
2	295156	94.11	0
2	295472	94.21	0
2	295788	94.31	0
2	296104	94.41	0
2	296420	94.51	0
2	296736	94.61	0
2	297052	94.71	0
2	297368	94.81	0
2	297684	94.91	0
2	298006	95.01	0
2	298322	95.11	0
2	298638	95.21	0
2	298954	95.31	0
2	299270	95.41	0
2	299586	95.51	0
2	299902	95.61	0
2	300218	95.71	0
2	300534	95.81	0
2	300850	95.91	0
2	301172	96.01	0
2	301488	96.11	0
2	301804	96.21	0
2	302120	96.31	0
2	302436	96.41	0
2	302752	96.51	0
2	303068	96.61	0
2	303384	96.71	0
2	303700	96.81	0
2	304016	96.91	0
2	304338	97.01	0
2	304654	97.11	0
2	304970	97.21	0
2	305286	97.31	0
2	305602	97.41	0
2	305918	97.51	0
2	306234	97.61	0
2	306550	97.71	0
2	306866	97.81	0
2	307182	97.91	0
2	307504	98.01	0
2	307820	98.11	0
2	308136	98.21	0
2	308452	98.31	0
2	308768	98.41	0
2	309084	98.51	0
2	309400	98.61	0
2	309716	98.71	0
2	310032	98.81	0
2	310348	98.91	0
2	310670	99.01	0
2	310986	99.11	0
2	311302	99.21	0
2	311618	99.31	0
2	311934	99.41	0
2	312250	99.51	0
2	312566	99.61	0
2	312882	99.71	0
2	313198	99.81	0
2	313514	99.91	0
3	113	1.11	-0.000716383
3	429	1.21	-0.00136341
3	745	1.31	-0.00186974
3	1061	1.41	-0.00225157
3	1377	1.51	-0.00252443
3	1693	1.61	-0.00270298
3	2009	1.71	-0.00280098
3	2325	1.81	-0.00283113
3	2641	1.91	-0.00280509
3	2963	2.01	-0.00273342
3	3279	2.11	-0.00262559
3	3595	2.21	-0.00249005
3	3911	2.31	-0.00233419
3	4227	2.41	-0.00216447
3	4543	2.51	-0.00198642
3	4859	2.61	-0.00180472
3	5175	2.71	-0.0016233
3	5491	2.81	-0.00144536
3	5807	2.91	-0.00127346
3	6129	3.01	-0.0011096
3	6445	3.11	-0.000955278
3	6761	3.21	-0.000811546
3	7077	3.31	-0.00067908
3	7393	3.41	-0.000558232
3	7709	3.51	-0.000449082
3	8025	3.61	-0.000351487
3	8341	3.71	-0.00026512
3	8657	3.81	-0.000189514
3	8973	3.91	-0.000124092
3	9295	4.01	-6.81972e-05
3	9611	4.11	-2.11209e-05
3	9927	4.21	1.78769e-05
3	10243	4.31	4.9548e-05
3	10559	4.41	7.46407e-05
3	10875	4.51	9.38867e-05
3	11191	4.61	0.000107991
3	11507	4.71	0.000117625
3	11823	4.81	0.000123418
3	12139	4.91	0.000125957
3	12461	5.01	0.000125781
3	12777	5.11	0.00012338
3	13093	5.21	0.000119198
3	13409	5.31	0.000113629
3	13725	5.41	0.000107022
3	14041	5.51	9.96832e-05
3	14357	5.61	9.18747e-05
3	14673	5.71	8.38211e-05
3	14989	5.81	7.57109e-05
3	15305	5.91	6.76999e-05
3	15627	6.01	5.99137e-05
3	15943	6.11	5.24518e-05
3	16259	6.21	4.53896e-05
3	16575	6.31	3.87821e-05
3	16891	6.41	3.2666e-05
3	17207	6.51	2.70628e-05
3	17523	6.61	2.19809e-05
3	17839	6.71	1.74176e-05
3	18155	6.81	1.33618e-05
3	18471	6.91	9.79494e-06
3	18793	7.01	6.6932e-06
3	19109	7.11	4.02864e-06
3	19425	7.21	1.77051e-06
3	19741	7.31	-1.13691e-07
3	20057	7.41	-1.65736e-06
3	20373	7.51	-2.89397e-06
3	20689	7.61	-3.85652e-06
3	21005	7.71	-4.57698e-06
3	21321	7.81	-5.08591e-06
3	21637	7.91	-5.41219e-06
3	21959	8.01	-5.58279e-06
3	22275	8.11	-5.6226e-06
3	22591	8.21	-5.55442e-06
3	22907	8.31	-5.39886e-06
3	23223	8.41	-5.17441e-06
3	23539	8.51	-4.89748e-06
3	23855	8.61	-4.58246e-06
3	24171	8.71	-4.24184e-06
3	24487	8.81	-3.88634e-06
3	24803	8.91	-3.52499e-06
3	25125	9.01	-3.16534e-06
3	25441	9.11	-2.81353e-06
3	25757	9.21	-2.47446e-06
3	26073	9.31	-2.15192e-06
3	26389	9.41	-1.84873e-06
3	26705	9.51	-1.56685e-06
3	27021	9.61	-1.30751e-06
3	27337	9.71	-1.0713e-06
3	27653	9.81	-8.58321e-07
3	27969	9.91	-6.68206e-07
3	28391	10.01	-5.0026e-07
3	28708	10.11	-3.53514e-07
3	29025	10.21	-2.2679e-07
3	29342	10.31	-1.18765e-07
3	29659	10.41	-2.80163e-08
3	29976	10.51	4.6931e-08
3	30293	10.61	1.07573e-07
3	30610	10.71	1.55391e-07
3	30927	10.81	1.91831e-07
3	31244	10.91	2.18284e-07
3	31567	11.01	2.3607e-07
3	31884	11.11	2.46427e-07
3	32201	11.21	2.50502e-07
3	32518	11.31	2.49353e-07
3	32835	11.41	2.43938e-07
3	33152	11.51	2.3512e-07
3	33469	11.61	2.23669e-07
3	33786	11.71	2.10264e-07
3	34103	11.81	1.95496e-07
3	34420	11.91	1.79874e-07
3	34743	12.01	1.63833e-07
3	35060	12.11	1.47736e-07
3	35377	12.21	1.3188e-07
3	35694	12.31	1.16508e-07
3	36011	12.41	1.01807e-07
3	36328	12.51	8.79222e-08
3	36645	12.61	7.49541e-08
3	36962	12.71	6.29711e-08
3	37279	12.81	5.20114e-08
3	37596	12.91	4.20883e-08
3	37919	13.01	3.3193e-08
3	38236	13.11	2.53003e-08
3	38553	13.21	1.83718e-08
3	38870	13.31	1.23581e-08
3	39187	13.41	7.20348e-09
3	39504	13.51	2.84537e-09
3	39821	13.61	-7.80886e-10
3	40138	13.71	-3.74136e-09
3	40455	13.81	-6.10285e-09
3	40772	13.91	-7.93072e-09
3	41095	14.01	-9.28821e-09
3	41412	14.11	-1.0235e-08
3	41729	14.21	-1.08283e-08
3	42046	14.31	-1.11211e-08
3	42363	14.41	-1.11612e-08
3	42680	14.51	-1.09946e-08
3	42997	14.61	-1.06599e-08
3	43314	14.71	-1.01945e-08
3	43631	14.81	-9.62999e-09
3	43948	14.91	-8.99405e-09
3	44271	15.01	-8.31086e-09
3	44588	15.11	-7.60103e-09
3	44905	15.21	-6.88338e-09
3	45222	15.31	-6.17071e-09
3	45539	15.41	-5.47544e-09
3	45856	15.51	-4.80682e-09
3	46173	15.61	-4.17266e-09
3	46490	15.71	-3.57687e-09
3	46807	15.81	-3.02443e-09
3	47124	15.91	-2.51674e-09
3	47447	16.01	-2.05489e-09
3	47764	16.11	-1.63958e-09
3	48081	16.21	-1.26903e-09
3	48398	16.31	-9.42535e-10
3	48715	16.41	-6.57963e-10
3	49032	16.51	-4.1247e-10
3	49349	16.61	-2.04636e-10
3	49666	16.71	-2.91323e-11
3	49983	16.81	1.14753e-10
3	50300	16.91	2.30926e-10
3	50623	17.01	3.22231e-10
3	50940	17.11	3.91154e-10
3	51257	17.21	4.40892e-10
3	51574	17.31	4.73577e-10
3	51891	17.41	4.92051e-10
3	52208	17.51	4.98446e-10
3	52525	17.61	4.94893e-10
3	52842	17.71	4.82814e-10
3	53159	17.81	4.6434e-10
3	53476	17.91	4.40892e-10
3	53799	18.01	4.13536e-10
3	54116	18.11	3.83693e-10
3	54433	18.21	3.51719e-10
3	54750	18.31	3.19744e-10
3	55067	18.41	2.8777e-10
3	55384	18.51	2.55795e-10
3	55701	18.61	2.25953e-10
3	56018	18.71	1.97531e-10
3	56335	18.81	1.6982e-10
3	56652	18.91	1.44951e-10
3	56975	19.01	1.21503e-10
3	57292	19.11	1.00187e-10
3	57609	19.21	8.10019e-11
3	57926	19.31	6.32383e-11
3	58243	19.41	4.86722e-11
3	58560	19.51	3.44613e-11
3	58877	19.61	2.34479e-11
3	59194	19.71	1.27898e-11
3	59511	19.81	4.9738e-12
3	59828	19.91	-2.13163e-12
3	60151	20.01	-8.17124e-12
3	60468	20.11	-1.1724e-11
3	60785	20.21	-1.52767e-11
3	61102	20.31	-1.88294e-11
3	61419	20.41	-2.02505e-11
3	61736	20.51	-2.02505e-11
3	62053	20.61	-2.02505e-11
3	62370	20.71	-2.02505e-11
3	62687	20.81	-2.02505e-11
3	63004	20.91	-2.02505e-11
3	63327	21.01	-2.02505e-11
3	63644	21.11	-2.02505e-11
3	63961	21.21	-2.02505e-11
3	64278	21.31	-1.88294e-11
3	64595	21.41	-1.7053e-11
3	64912	21.51	-1.52767e-11
3	65229	21.61	-1.38556e-11
3	65546	21.71	-1.24345e-11
3	65863	21.81	-1.13687e-11
3	66180	21.91	-1.03029e-11
3	66503	22.01	-9.23706e-12
3	66820	22.11	-8.52651e-12
3	67137	22.21	-7.4607e-12
3	67454	22.31	-6.75016e-12
3	67771	22.41	-6.03961e-12
3	68088	22.51	-5.68434e-12
3	68405	22.61	-4.9738e-12
3	68722	22.71	-4.61853e-12
3	69039	22.81	-4.26326e-12
3	69356	22.91	-3.90799e-12
3	69679	23.01	-3.55271e-12
3	69996	23.11	-3.19744e-12
3	70313	23.21	-2.84217e-12
3	70630	23.31	-2.4869e-12
3	70947	23.41	-2.13163e-12
3	71264	23.51	-2.13163e-12
3	71581	23.61	-1.77636e-12
3	71898	23.71	-1.77636e-12
3	72215	23.81	-1.42109e-12
3	72532	23.91	-1.42109e-12
3	72855	24.01	-1.06581e-12
3	73172	24.11	-1.06581e-12
3	73489	24.21	-1.06581e-12
3	73806	24.31	-1.06581e-12
3	74123	24.41	-7.10543e-13
3	74440	24.51	-7.10543e-13
3	74757	24.61	-7.10543e-13
3	75074	24.71	-7.10543e-13
3	75391	24.81	-7.10543e-13
3	75708	24.91	-3.55271e-13
3	76031	25.01	-3.55271e-13
3	76348	25.11	-3.55271e-13
3	76665	25.21	-3.55271e-13
3	76982	25.31	-3.55271e-13
3	77299	25.41	-3.55271e-13
3	77616	25.51	-3.55271e-13
3	77933	25.61	-3.55271e-13
3	78250	25.71	-3.55271e-13
3	78567	25.81	-3.55271e-13
3	78884	25.91	0
3	79207	26.01	0
3	79524	26.11	0
3	79841	26.21	0
3	80158	26.31	0
3	80475	26.41	0
3	80792	26.51	0
3	81109	26.61	0
3	81426	26.71	0
3	81743	26.81	0
3	82060	26.91	0
3	82383	27.01	0
3	82700	27.11	0
3	83017	27.21	0
3	83334	27.31	0
3	83651	27.41	0
3	83968	27.51	0
3	84285	27.61	0
3	84602	27.71	0
3	84919	27.81	0
3	85236	27.91	0
3	85559	28.01	0
3	85876	28.11	0
3	86193	28.21	0
3	86510	28.31	0
3	86827	28.41	0
3	87144	28.51	0
3	87461	28.61	0
3	87778	28.71	0
3	88095	28.81	0
3	88412	28.91	0
3	88735	29.01	0
3	89052	29.11	0
3	89369	29.21	0
3	89686	29.31	0
3	90003	29.41	0
3	90320	29.51	0
3	90637	29.61	0
3	90954	29.71	0
3	91271	29.81	0
3	91588	29.91	0
3	91911	30.01	0
3	92228	30.11	0
3	92545	30.21	0
3	92862	30.31	0
3	93179	30.41	0
3	93496	30.51	0
3	93813	30.61	0
3	94130	30.71	0
3	94447	30.81	0
3	94764	30.91	0
3	95087	31.01	0
3	95404	31.11	0
3	95721	31.21	0
3	96038	31.31	0
3	96355	31.41	0
3	96672	31.51	0
3	96989	31.61	0
3	97306	31.71	0
3	97623	31.81	0
3	97940	31.91	0
3	98263	32.01	0
3	98580	32.11	0
3	98897	32.21	0
3	99214	32.31	0
3	99531	32.41	0
3	99848	32.51	0
3	100165	32.61	0
3	100482	32.71	0
3	100799	32.81	0
3	101116	32.91	0
3	101439	33.01	0
3	101756	33.11	0
3	102073	33.21	0
3	102390	33.31	0
3	102707	33.41	0
3	103024	33.51	0
3	103341	33.61	0
3	103658	33.71	0
3	103975	33.81	0
3	104292	33.91	0
3	104615	34.01	0
3	104932	34.11	0
3	105249	34.21	0
3	105566	34.31	0
3	105883	34.41	0
3	106200	34.51	0
3	106517	34.61	0
3	106834	34.71	0
3	107151	34.81	0
3	107468	34.91	0
3	107791	35.01	0
3	108108	35.11	0
3	108425	35.21	0
3	108742	35.31	0
3	109059	35.41	0
3	109376	35.51	0
3	109693	35.61	0
3	110010	35.71	0
3	110327	35.81	0
3	110644	35.91	0
3	110967	36.01	0
3	111284	36.11	0
3	111601	36.21	0
3	111918	36.31	0
3	112235	36.41	0
3	112552	36.51	0
3	112869	36.61	0
3	113186	36.71	0
3	113503	36.81	0
3	113820	36.91	0
3	114143	37.01	0
3	114460	37.11	0
3	114777	37.21	0
3	115094	37.31	0
3	115411	37.41	0
3	115728	37.51	0
3	116045	37.61	0
3	116362	37.71	0
3	116679	37.81	0
3	116996	37.91	0
3	117319	38.01	0
3	117636	38.11	0
3	117953	38.21	0
3	118270	38.31	0
3	118587	38.41	0
3	118904	38.51	0
3	119221	38.61	0
3	119538	38.71	0
3	119855	38.81	0
3	120172	38.91	0
3	120495	39.01	0
3	120812	39.11	0
3	121129	39.21	0
3	121446	39.31	0
3	121763	39.41	0
3	122080	39.51	0
3	122397	39.61	0
3	122714	39.71	0
3	123031	39.81	0
3	123348	39.91	0
3	123671	40.01	0
3	123988	40.11	0
3	124305	40.21	0
3	124622	40.31	0
3	124939	40.41	0
3	125256	40.51	0
3	125573	40.61	0
3	125890	40.71	0
3	126207	40.81	0
3	126524	40.91	0
3	126847	41.01	0
3	127164	41.11	0
3	127481	41.21	0
3	127798	41.31	0
3	128115	41.41	0
3	128432	41.51	0
3	128749	41.61	0
3	129066	41.71	0
3	129383	41.81	0
3	129700	41.91	0
3	130023	42.01	0
3	130340	42.11	0
3	130657	42.21	0
3	130974	42.31	0
3	131291	42.41	0
3	131608	42.51	0
3	131925	42.61	0
3	132242	42.71	0
3	132559	42.81	0
3	132876	42.91	0
3	133199	43.01	0
3	133516	43.11	0
3	133833	43.21	0
3	134150	43.31	0
3	134467	43.41	0
3	134784	43.51	0
3	135101	43.61	0
3	135418	43.71	0
3	135735	43.81	0
3	136052	43.91	0
3	136375	44.01	0
3	136692	44.11	0
3	137009	44.21	0
3	137326	44.31	0
3	137643	44.41	0
3	137960	44.51	0
3	138277	44.61	0
3	138594	44.71	0
3	138911	44.81	0
3	139228	44.91	0
3	139551	45.01	0
3	139868	45.11	0
3	140185	45.21	0
3	140502	45.31	0
3	140819	45.41	0
3	141136	45.51	0
3	141453	45.61	0
3	141770	45.71	0
3	142087	45.81	0
3	142550	45.91	0
3	142872	46.01	0
3	143188	46.11	0
3	143504	46.21	0
3	143820	46.31	0
3	144136	46.41	0
3	144452	46.51	0
3	144768	46.61	0
3	145084	46.71	0
3	145400	46.81	0
3	145716	46.91	0
3	146038	47.01	0
3	146354	47.11	0
3	146670	47.21	0
3	146986	47.31	0
3	147302	47.41	0
3	147618	47.51	0
3	147934	47.61	0
3	148250	47.71	0
3	148566	47.81	0
3	148882	47.91	0
3	149204	48.01	0
3	149520	48.11	0
3	149836	48.21	0
3	150152	48.31	0
3	150468	48.41	0
3	150784	48.51	0
3	151100	48.61	0
3	151416	48.71	0
3	151732	48.81	0
3	152048	48.91	0
3	152370	49.01	0
3	152686	49.11	0
3	153002	49.21	0
3	153318	49.31	0
3	153634	49.41	0
3	153950	49.51	0
3	154266	49.61	0
3	154582	49.71	0
3	154898	49.81	0
3	155214	49.91	0
3	155536	50.01	0
3	155852	50.11	0
3	156168	50.21	0
3	156484	50.31	0
3	156800	50.41	0
3	157116	50.51	0
3	157432	50.61	0
3	157748	50.71	0
3	158064	50.81	0
3	158380	50.91	0
3	158702	51.01	0
3	159018	51.11	0
3	159334	51.21	0
3	159650	51.31	0
3	159966	51.41	0
3	160282	51.51	0
3	160598	51.61	0
3	160914	51.71	0
3	161230	51.81	0
3	161546	51.91	0
3	161868	52.01	0
3	162184	52.11	0
3	162500	52.21	0
3	162816	52.31	0
3	163132	52.41	0
3	163448	52.51	0
3	163764	52.61	0
3	164080	52.71	0
3	164396	52.81	0
3	164712	52.91	0
3	165034	53.01	0
3	165350	53.11	0
3	165666	53.21	0
3	165982	53.31	0
3	166298	53.41	0
3	166614	53.51	0
3	166930	53.61	0
3	167246	53.71	0
3	167562	53.81	0
3	167878	53.91	0
3	168200	54.01	0
3	168516	54.11	0
3	168832	54.21	0
3	169148	54.31	0
3	169464	54.41	0
3	169780	54.51	0
3	170096	54.61	0
3	170412	54.71	0
3	170728	54.81	0
3	171044	54.91	0
3	171366	55.01	0
3	171682	55.11	0
3	171998	55.21	0
3	172314	55.31	0
3	172630	55.41	0
3	172946	55.51	0
3	173262	55.61	0
3	173578	55.71	0
3	173894	55.81	0
3	174210	55.91	0
3	174532	56.01	0
3	174848	56.11	0
3	175164	56.21	0
3	175480	56.31	0
3	175796	56.41	0
3	176112	56.51	0
3	176428	56.61	0
3	176744	56.71	0
3	177060	56.81	0
3	177376	56.91	0
3	177698	57.01	0
3	178014	57.11	0
3	178330	57.21	0
3	178646	57.31	0
3	178962	57.41	0
3	179278	57.51	0
3	179594	57.61	0
3	179910	57.71	0
3	180226	57.81	0
3	180542	57.91	0
3	180864	58.01	0
3	181180	58.11	0
3	181496	58.21	0
3	181812	58.31	0
3	182128	58.41	0
3	182444	58.51	0
3	182760	58.61	0
3	183076	58.71	0
3	183392	58.81	0
3	183708	58.91	0
3	184030	59.01	0
3	184346	59.11	0
3	184662	59.21	0
3	184978	59.31	0
3	185294	59.41	0
3	185610	59.51	0
3	185926	59.61	0
3	186242	59.71	0
3	186558	59.81	0
3	186874	59.91	0
3	187196	60.01	0
3	187512	60.11	0
3	187828	60.21	0
3	188144	60.31	0
3	188460	60.41	0
3	188776	60.51	0
3	189092	60.61	0
3	189408	60.71	0
3	189724	60.81	0
3	190040	60.91	0
3	190362	61.01	0
3	190678	61.11	0
3	190994	61.21	0
3	191310	61.31	0
3	191626	61.41	0
3	191942	61.51	0
3	192258	61.61	0
3	192574	61.71	0
3	192890	61.81	0
3	193206	61.91	0
3	193528	62.01	0
3	193844	62.11	0
3	194160	62.21	0
3	194476	62.31	0
3	194792	62.41	0
3	195108	62.51	0
3	195424	62.61	0
3	195740	62.71	0
3	196056	62.81	0
3	196372	62.91	0
3	196694	63.01	0
3	197010	63.11	0
3	197326	63.21	0
3	197642	63.31	0
3	197958	63.41	0
3	198274	63.51	0
3	198590	63.61	0
3	198906	63.71	0
3	199222	63.81	0
3	199538	63.91	0
3	199860	64.01	0
3	200176	64.11	0
3	200492	64.21	0
3	200808	64.31	0
3	201124	64.41	0
3	201440	64.51	0
3	201756	64.61	0
3	202072	64.71	0
3	202388	64.81	0
3	202704	64.91	0
3	203026	65.01	0
3	203342	65.11	0
3	203658	65.21	0
3	203974	65.31	0
3	204290	65.41	0
3	204606	65.51	0
3	204922	65.61	0
3	205238	65.71	0
3	205554	65.81	0
3	205870	65.91	0
3	206192	66.01	0
3	206508	66.11	0
3	206824	66.21	0
3	207140	66.31	0
3	207456	66.41	0
3	207772	66.51	0
3	208088	66.61	0
3	208404	66.71	0
3	208720	66.81	0
3	209036	66.91	0
3	209358	67.01	0
3	209674	67.11	0
3	209990	67.21	0
3	210306	67.31	0
3	210622	67.41	0
3	210938	67.51	0
3	211254	67.61	0
3	211570	67.71	0
3	211886	67.81	0
3	212202	67.91	0
3	212524	68.01	0
3	212840	68.11	0
3	213156	68.21	0
3	213472	68.31	0
3	213788	68.41	0
3	214104	68.51	0
3	214420	68.61	0
3	214736	68.71	0
3	215052	68.81	0
3	215368	68.91	0
3	215690	69.01	0
3	216006	69.11	0
3	216322	69.21	0
3	216638	69.31	0
3	216954	69.41	0
3	217270	69.51	0
3	217586	69.61	0
3	217902	69.71	0
3	218218	69.81	0
3	218534	69.91	0
3	218856	70.01	0
3	219172	70.11	0
3	219488	70.21	0
3	219804	70.31	0
3	220120	70.41	0
3	220436	70.51	0
3	220752	70.61	0
3	221068	70.71	0
3	221384	70.81	0
3	221700	70.91	0
3	222022	71.01	0
3	222338	71.11	0
3	222654	71.21	0
3	222970	71.31	0
3	223286	71.41	0
3	223602	71.51	0
3	223918	71.61	0
3	224234	71.71	0
3	224550	71.81	0
3	224866	71.91	0
3	225188	72.01	0
3	225504	72.11	0
3	225820	72.21	0
3	226136	72.31	0
3	226452	72.41	0
3	226768	72.51	0
3	227084	72.61	0
3	227400	72.71	0
3	227716	72.81	0
3	228032	72.91	0
3	228354	73.01	0
3	228670	73.11	0
3	228986	73.21	0
3	229302	73.31	0
3	229618	73.41	0
3	229934	73.51	0
3	230250	73.61	0
3	230566	73.71	0
3	230882	73.81	0
3	231198	73.91	0
3	231520	74.01	0
3	231836	74.11	0
3	232152	74.21	0
3	232468	74.31	0
3	232784	74.41	0
3	233100	74.51	0
3	233416	74.61	0
3	233732	74.71	0
3	234048	74.81	0
3	234364	74.91	0
3	234686	75.01	0
3	235002	75.11	0
3	235318	75.21	0
3	235634	75.31	0
3	235950	75.41	0
3	236266	75.51	0
3	236582	75.61	0
3	236898	75.71	0
3	237214	75.81	0
3	237530	75.91	0
3	237852	76.01	0
3	238168	76.11	0
3	238484	76.21	0
3	238800	76.31	0
3	239116	76.41	0
3	239432	76.51	0
3	239748	76.61	0
3	240064	76.71	0
3	240380	76.81	0
3	240696	76.91	0
3	241018	77.01	0
3	241334	77.11	0
3	241650	77.21	0
3	241966	77.31	0
3	242282	77.41	0
3	242598	77.51	0
3	242914	77.61	0
3	243230	77.71	0
3	243546	77.81	0
3	243862	77.91	0
3	244184	78.01	0
3	244500	78.11	0
3	244816	78.21	0
3	245132	78.31	0
3	245448	78.41	0
3	245764	78.51	0
3	246080	78.61	0
3	246396	78.71	0
3	246712	78.81	0
3	247028	78.91	0
3	247350	79.01	0
3	247666	79.11	0
3	247982	79.21	0
3	248298	79.31	0
3	248614	79.41	0
3	248930	79.51	0
3	249246	79.61	0
3	249562	79.71	0
3	249878	79.81	0
3	250194	79.91	0
3	250516	80.01	0
3	250832	80.11	0
3	251148	80.21	0
3	251464	80.31	0
3	251780	80.41	0
3	252096	80.51	0
3	252412	80.61	0
3	252728	80.71	0
3	253044	80.81	0
3	253360	80.91	0
3	253682	81.01	0
3	253998	81.11	0
3	254314	81.21	0
3	254630	81.31	0
3	254946	81.41	0
3	255262	81.51	0
3	255578	81.61	0
3	255894	81.71	0
3	256210	81.81	0
3	256526	81.91	0
3	256848	82.01	0
3	257164	82.11	0
3	257480	82.21	0
3	257796	82.31	0
3	258112	82.41	0
3	258428	82.51	0
3	258744	82.61	0
3	259060	82.71	0
3	259376	82.81	0
3	259692	82.91	0
3	260014	83.01	0
3	260330	83.11	0
3	260646	83.21	0
3	260962	83.31	0
3	261278	83.41	0
3	261594	83.51	0
3	261910	83.61	0
3	262226	83.71	0
3	262542	83.81	0
3	262858	83.91	0
3	263180	84.01	0
3	263496	84.11	0
3	263812	84.21	0
3	264128	84.31	0
3	264444	84.41	0
3	264760	84.51	0
3	265076	84.61	0
3	265392	84.71	0
3	265708	84.81	0
3	266024	84.91	0
3	266346	85.01	0
3	266662	85.11	0
3	266978	85.21	0
3	267294	85.31	0
3	267610	85.41	0
3	267926	85.51	0
3	268242	85.61	0
3	268558	85.71	0
3	268874	85.81	0
3	269190	85.91	0
3	269512	86.01	0
3	269828	86.11	0
3	270144	86.21	0
3	270460	86.31	0
3	270776	86.41	0
3	271092	86.51	0
3	271408	86.61	0
3	271724	86.71	0
3	272040	86.81	0
3	272356	86.91	0
3	272678	87.01	0
3	272994	87.11	0
3	273310	87.21	0
3	273626	87.31	0
3	273942	87.41	0
3	274258	87.51	0
3	274574	87.61	0
3	274890	87.71	0
3	275206	87.81	0
3	275522	87.91	0
3	275844	88.01	0
3	276160	88.11	0
3	276476	88.21	0
3	276792	88.31	0
3	277108	88.41	0
3	277424	88.51	0
3	277740	88.61	0
3	278056	88.71	0
3	278372	88.81	0
3	278688	88.91	0
3	279010	89.01	0
3	279326	89.11	0
3	279642	89.21	0
3	279958	89.31	0
3	280274	89.41	0
3	280590	89.51	0
3	280906	89.61	0
3	281222	89.71	0
3	281538	89.81	0
3	281854	89.91	0
3	282176	90.01	0
3	282492	90.11	0
3	282808	90.21	0
3	283124	90.31	0
3	283440	90.41	0
3	283756	90.51	0
3	284072	90.61	0
3	284388	90.71	0
3	284704	90.81	0
3	285020	90.91	0
3	285342	91.01	0
3	285658	91.11	0
3	285974	91.21	0
3	286290	91.31	0
3	286606	91.41	0
3	286922	91.51	0
3	287238	91.61	0
3	287554	91.71	0
3	287870	91.81	0
3	288186	91.91	0
3	288508	92.01	0
3	288824	92.11	0
3	289140	92.21	0
3	289456	92.31	0
3	289772	92.41	0
3	290088	92.51	0
3	290404	92.61	0
3	290720	92.71	0
3	291036	92.81	0
3	291352	92.91	0
3	291674	93.01	0
3	291990	93.11	0
3	292306	93.21	0
3	292622	93.31	0
3	292938	93.41	0
3	293254	93.51	0
3	293570	93.61	0
3	293886	93.71	0
3	294202	93.81	0
3	294518	93.91	0
3	294840	94.01	0
3	295156	94.11	0
3	295472	94.21	0
3	295788	94.31	0
3	296104	94.41	0
3	296420	94.51	0
3	296736	94.61	0
3	297052	94.71	0
3	297368	94.81	0
3	297684	94.91	0
3	298006	95.01	0
3	298322	95.11	0
3	298638	95.21	0
3	298954	95.31	0
3	299270	95.41	0
3	299586	95.51	0
3	299902	95.61	0
3	300218	95.71	0
3	300534	95.81	0
3	300850	95.91	0
3	301172	96.01	0
3	301488	96.11	0
3	301804	96.21	0
3	302120	96.31	0
3	302436	96.41	0
3	302752	96.51	0
3	303068	96.61	0
3	303384	96.71	0
3	303700	96.81	0
3	304016	96.91	0
3	304338	97.01	0
3	304654	97.11	0
3	304970	97.21	0
3	305286	97.31	0
3	305602	97.41	0
3	305918	97.51	0
3	306234	97.61	0
3	306550	97.71	0
3	306866	97.81	0
3	307182	97.91	0
3	307504	98.01	0
3	307820	98.11	0
3	308136	98.21	0
3	308452	98.31	0
3	308768	98.41	0
3	309084	98.51	0
3	309400	98.61	0
3	309716	98.71	0
3	310032	98.81	0
3	310348	98.91	0
3	310670	99.01	0
3	310986	99.11	0
3	311302	99.21	0
3	311618	99.31	0
3	311934	99.41	0
3	312250	99.51	0
3	312566	99.61	0
3	312882	99.71	0
3	313198	99.81	0
3	313514	99.91	0
4	113	1.11	-0.00437036
4	429	1.21	-0.00426837
4	745	1.31	-0.00410815
4	1061	1.41	-0.00390303
4	1377	1.51	-0.00366476
4	1693	1.61	-0.00340356
4	2009	1.71	-0.00312825
4	2325	1.81	-0.00284628
4	2641	1.91	-0.00256392
4	2963	2.01	-0.0022863
4	3279	2.11	-0.00201755
4	3595	2.21	-0.00176089
4	3911	2.31	-0.00151876
4	4227	2.41	-0.00129289
4	4543	2.51	-0.00108441
4	4859	2.61	-0.00089393
4	5175	2.71	-0.000721638
4	5491	2.81	-0.000567355
4	5807	2.91	-0.000430614
4	6129	3.01	-0.000310715
4	6445	3.11	-0.000206783
4	6761	3.21	-0.000117814
4	7077	3.31	-4.27149e-05
4	7393	3.41	1.96584e-05
4	7709	3.51	7.04736e-05
4	8025	3.61	0.000110896
4	8341	3.71	0.000142067
4	8657	3.81	0.00016509
4	8973	3.91	0.000181016
4	9295	4.01	0.000190834
4	9611	4.11	0.000195466
4	9927	4.21	0.00019576
4	10243	4.31	0.000192489
4	10559	4.41	0.000186354
4	10875	4.51	0.000177979
4	11191	4.61	0.000167916
4	11507	4.71	0.000156649
4	11823	4.81	0.000144597
4	12139	4.91	0.000132116
4	12461	5.01	0.000119508
4	12777	5.11	0.000107021
4	13093	5.21	9.48587e-05
4	13409	5.31	8.31796e-05
4	13725	5.41	7.21068e-05
4	14041	5.51	6.17299e-05
4	14357	5.61	5.21101e-05
4	14673	5.71	4.32839e-05
4	14989	5.81	3.52669e-05
4	15305	5.91	2.80577e-05
4	15627	6.01	2.16404e-05
4	15943	6.11	1.59878e-05
4	16259	6.21	1.1064e-05
4	16575	6.31	6.82631e-06
4	16891	6.41	3.22748e-06
4	17207	6.51	2.17307e-07
4	17523	6.61	-2.25598e-06
4	17839	6.71	-4.24448e-06
4	18155	6.81	-5.79961e-06
4	18471	6.91	-6.97134e-06
4	18793	7.01	-7.80753e-06
[...]
65	266290	85	0
65	269456	86	0
65	272622	87	0
65	275788	88	0
65	278954	89	0
65	282120	90	0
65	285286	91	0
65	288452	92	0
65	291618	93	0
65	294784	94	0
65	297950	95	0
65	301116	96	0
65	304282	97	0
65	307448	98	0
65	310614	99	0
65	313780	100	0
66	2908	2	2
66	6074	3	2
66	9240	4	2
66	12406	5	2
66	15572	6	2
66	18738	7	2
66	21904	8	2
66	25070	9	2
66	28239	10	2
66	31511	11	2
66	34687	12	2
66	37863	13	2
66	41039	14	2
66	44215	15	2
66	47391	16	2
66	50567	17	2
66	53743	18	2
66	56919	19	2
66	60095	20	2
66	63271	21	2
66	66447	22	2
66	69623	23	2
66	72799	24	2
66	75975	25	2
66	79151	26	2
66	82327	27	2
66	85503	28	2
66	88679	29	2
66	91855	30	2
66	95031	31	2
66	98207	32	2
66	101383	33	2
66	104559	34	2
66	107735	35	2
66	110911	36	2
66	114087	37	2
66	117263	38	2
66	120439	39	2
66	123615	40	2
66	126791	41	2
66	129967	42	2
66	133143	43	2
66	136319	44	2
66	139495	45	2
66	142817	46	2
66	145983	47	2
66	149149	48	2
66	152315	49	2
66	155481	50	2
66	158647	51	2
66	161813	52	2
66	164979	53	2
66	168145	54	2
66	171311	55	2
66	174477	56	2
66	177643	57	2
66	180809	58	2
66	183975	59	2
66	187141	60	2
66	190307	61	2
66	193473	62	2
66	196639	63	2
66	199805	64	2
66	202971	65	2
66	206137	66	2
66	209303	67	2
66	212469	68	2
66	215635	69	2
66	218801	70	2
66	221967	71	2
66	225133	72	2
66	228299	73	2
66	231465	74	2
66	234631	75	2
66	237797	76	2
66	240963	77	2
66	244129	78	2
66	247295	79	2
66	250461	80	2
66	253627	81	2
66	256793	82	2
66	259959	83	2
66	263125	84	2
66	266291	85	2
66	269457	86	2
66	272623	87	2
66	275789	88	2
66	278955	89	2
66	282121	90	2
66	285287	91	2
66	288453	92	2
66	291619	93	2
66	294785	94	2
66	297951	95	2
66	301117	96	2
66	304283	97	2
66	307449	98	2
66	310615	99	2
66	313781	100	2
67	2908	2	0.016545
67	6074	3	0.01873
67	9240	4	0.01873
67	12406	5	0.01873
67	15572	6	0.01873
67	18738	7	0.01873
67	21904	8	0.01873
67	25070	9	0.01873
67	28239	10	0.01873
67	31511	11	0.018779318545
67	34687	12	0.01873
67	37863	13	0.01873
67	41039	14	0.01873
67	44215	15	0.01873
67	47391	16	0.01873
67	50567	17	0.01873
67	53743	18	0.01873
67	56919	19	0.01873
67	60095	20	0.01873
67	63271	21	0.01873
67	66447	22	0.01873
67	69623	23	0.01873
67	72799	24	0.01873
67	75975	25	0.01873
67	79151	26	0.01873
67	82327	27	0.01873
67	85503	28	0.01873
67	88679	29	0.01873
67	91855	30	0.01873
67	95031	31	0.01873
67	98207	32	0.01873
67	101383	33	0.01873
67	104559	34	0.01873
67	107735	35	0.01873
67	110911	36	0.01873
67	114087	37	0.01873
67	117263	38	0.01873
67	120439	39	0.01873
67	123615	40	0.01873
67	126791	41	0.01873
67	129967	42	0.01873
67	133143	43	0.01873
67	136319	44	0.01873
67	139495	45	0.01873
67	142817	46	0.018954
67	145983	47	0.01873
67	149149	48	0.01873
67	152315	49	0.01873
67	155481	50	0.01873
67	158647	51	0.01873
67	161813	52	0.01873
67	164979	53	0.01873
67	168145	54	0.01873
67	171311	55	0.01873
67	174477	56	0.01873
67	177643	57	0.01873
67	180809	58	0.01873
67	183975	59	0.01873
67	187141	60	0.01873
67	190307	61	0.01873
67	193473	62	0.01873
67	196639	63	0.01873
67	199805	64	0.01873
67	202971	65	0.01873
67	206137	66	0.01873
67	209303	67	0.01873
67	212469	68	0.01873
67	215635	69	0.01873
67	218801	70	0.01873
67	221967	71	0.01873
67	225133	72	0.01873
67	228299	73	0.01873
67	231465	74	0.01873
67	234631	75	0.01873
67	237797	76	0.01873
67	240963	77	0.01873
67	244129	78	0.01873
67	247295	79	0.01873
67	250461	80	0.01873
67	253627	81	0.01873
67	256793	82	0.01873
67	259959	83	0.01873
67	263125	84	0.01873
67	266291	85	0.01873
67	269457	86	0.01873
67	272623	87	0.01873
67	275789	88	0.01873
67	278955	89	0.01873
67	282121	90	0.01873
67	285287	91	0.01873
67	288453	92	0.01873
67	291619	93	0.01873
67	294785	94	0.01873
67	297951	95	0.01873
67	301117	96	0.01873
67	304283	97	0.01873
67	307449	98	0.01873
67	310615	99	0.01873
67	313781	100	0.01873
68	2908	2	0
68	6074	3	0
68	9240	4	0
68	12406	5	0
68	15572	6	0
68	18738	7	0
68	21904	8	0
68	25070	9	0
68	28239	10	0
68	31511	11	0
68	34687	12	0
68	37863	13	0
68	41039	14	0
68	44215	15	0
68	47391	16	0
68	50567	17	0
68	53743	18	0
68	56919	19	0
68	60095	20	0
68	63271	21	0
68	66447	22	0
68	69623	23	0
68	72799	24	0
68	75975	25	0
68	79151	26	0
68	82327	27	0
68	85503	28	0
68	88679	29	0
68	91855	30	0
68	95031	31	0
68	98207	32	0
68	101383	33	0
68	104559	34	0
68	107735	35	0
68	110911	36	0
68	114087	37	0
68	117263	38	0
68	120439	39	0
68	123615	40	0
68	126791	41	0
68	129967	42	0
68	133143	43	0
68	136319	44	0
68	139495	45	0
68	142817	46	0
68	145983	47	0
68	149149	48	0
68	152315	49	0
68	155481	50	0
68	158647	51	0
68	161813	52	0
68	164979	53	0
68	168145	54	0
68	171311	55	0
68	174477	56	0
68	177643	57	0
68	180809	58	0
68	183975	59	0
68	187141	60	0
68	190307	61	0
68	193473	62	0
68	196639	63	0
68	199805	64	0
68	202971	65	0
68	206137	66	0
68	209303	67	0
68	212469	68	0
68	215635	69	0
68	218801	70	0
68	221967	71	0
68	225133	72	0
68	228299	73	0
68	231465	74	0
68	234631	75	0
68	237797	76	0
68	240963	77	0
68	244129	78	0
68	247295	79	0
68	250461	80	0
68	253627	81	0
68	256793	82	0
68	259959	83	0
68	263125	84	0
68	266291	85	0
68	269457	86	0
68	272623	87	0
68	275789	88	0
68	278955	89	0
68	282121	90	0
68	285287	91	0
68	288453	92	0
68	291619	93	0
68	294785	94	0
68	297951	95	0
68	301117	96	0
68	304283	97	0
68	307449	98	0
68	310615	99	0
68	313781	100	0
69	2909	2	3
69	6075	3	3
69	9241	4	3
69	12407	5	3
69	15573	6	3
69	18739	7	3
69	21905	8	3
69	25071	9	3
69	28240	10	3
69	31512	11	3
69	34688	12	3
69	37864	13	3
69	41040	14	3
69	44216	15	3
69	47392	16	3
69	50568	17	3
69	53744	18	3
69	56920	19	3
69	60096	20	3
69	63272	21	3
69	66448	22	3
69	69624	23	3
69	72800	24	3
69	75976	25	3
69	79152	26	3
69	82328	27	3
69	85504	28	3
69	88680	29	3
69	91856	30	3
69	95032	31	3
69	98208	32	3
69	101384	33	3
69	104560	34	3
69	107736	35	3
69	110912	36	3
69	114088	37	3
69	117264	38	3
69	120440	39	3
69	123616	40	3
69	126792	41	3
69	129968	42	3
69	133144	43	3
69	136320	44	3
69	139496	45	3
69	142818	46	3
69	145984	47	3
69	149150	48	3
69	152316	49	3
69	155482	50	3
69	158648	51	3
69	161814	52	3
69	164980	53	3
69	168146	54	3
69	171312	55	3
69	174478	56	3
69	177644	57	3
69	180810	58	3
69	183976	59	3
69	187142	60	3
69	190308	61	3
69	193474	62	3
69	196640	63	3
69	199806	64	3
69	202972	65	3
69	206138	66	3
69	209304	67	3
69	212470	68	3
69	215636	69	3
69	218802	70	3
69	221968	71	3
69	225134	72	3
69	228300	73	3
69	231466	74	3
69	234632	75	3
69	237798	76	3
69	240964	77	3
69	244130	78	3
69	247296	79	3
69	250462	80	3
69	253628	81	3
69	256794	82	3
69	259960	83	3
69	263126	84	3
69	266292	85	3
69	269458	86	3
69	272624	87	3
69	275790	88	3
69	278956	89	3
69	282122	90	3
69	285288	91	3
69	288454	92	3
69	291620	93	3
69	294786	94	3
69	297952	95	3
69	301118	96	3
69	304284	97	3
69	307450	98	3
69	310616	99	3
69	313782	100	3
70	2909	2	0.016545
70	6075	3	0.01873
70	9241	4	0.01873
70	12407	5	0.01873
70	15573	6	0.01873
70	18739	7	0.01873
70	21905	8	0.01873
70	25071	9	0.01873
70	28240	10	0.01873
70	31512	11	0.018778358393
70	34688	12	0.01873
70	37864	13	0.01873
70	41040	14	0.01873
70	44216	15	0.01873
70	47392	16	0.01873
70	50568	17	0.01873
70	53744	18	0.01873
70	56920	19	0.01873
70	60096	20	0.01873
70	63272	21	0.01873
70	66448	22	0.01873
70	69624	23	0.01873
70	72800	24	0.01873
70	75976	25	0.01873
70	79152	26	0.01873
70	82328	27	0.01873
70	85504	28	0.01873
70	88680	29	0.01873
70	91856	30	0.01873
70	95032	31	0.01873
70	98208	32	0.01873
70	101384	33	0.01873
70	104560	34	0.01873
70	107736	35	0.01873
70	110912	36	0.01873
70	114088	37	0.01873
70	117264	38	0.01873
70	120440	39	0.01873
70	123616	40	0.01873
70	126792	41	0.01873
70	129968	42	0.01873
70	133144	43	0.01873
70	136320	44	0.01873
70	139496	45	0.01873
70	142818	46	0.018954
70	145984	47	0.01873
70	149150	48	0.01873
70	152316	49	0.01873
70	155482	50	0.01873
70	158648	51	0.01873
70	161814	52	0.01873
70	164980	53	0.01873
70	168146	54	0.01873
70	171312	55	0.01873
70	174478	56	0.01873
70	177644	57	0.01873
70	180810	58	0.01873
70	183976	59	0.01873
70	187142	60	0.01873
70	190308	61	0.01873
70	193474	62	0.01873
70	196640	63	0.01873
70	199806	64	0.01873
70	202972	65	0.01873
70	206138	66	0.01873
70	209304	67	0.01873
70	212470	68	0.01873
70	215636	69	0.01873
70	218802	70	0.01873
70	221968	71	0.01873
70	225134	72	0.01873
70	228300	73	0.01873
70	231466	74	0.01873
70	234632	75	0.01873
70	237798	76	0.01873
70	240964	77	0.01873
70	244130	78	0.01873
70	247296	79	0.01873
70	250462	80	0.01873
70	253628	81	0.01873
70	256794	82	0.01873
70	259960	83	0.01873
70	263126	84	0.01873
70	266292	85	0.01873
70	269458	86	0.01873
70	272624	87	0.01873
70	275790	88	0.01873
70	278956	89	0.01873
70	282122	90	0.01873
70	285288	91	0.01873
70	288454	92	0.01873
70	291620	93	0.01873
70	294786	94	0.01873
70	297952	95	0.01873
70	301118	96	0.01873
70	304284	97	0.01873
70	307450	98	0.01873
70	310616	99	0.01873
70	313782	100	0.01873
71	2909	2	0
71	6075	3	0
71	9241	4	0
71	12407	5	0
71	15573	6	0
71	18739	7	0
71	21905	8	0
71	25071	9	0
71	28240	10	0
71	31512	11	0
71	34688	12	0
71	37864	13	0
71	41040	14	0
71	44216	15	0
71	47392	16	0
71	50568	17	0
71	53744	18	0
71	56920	19	0
71	60096	20	0
71	63272	21	0
71	66448	22	0
71	69624	23	0
71	72800	24	0
71	75976	25	0
71	79152	26	0
71	82328	27	0
71	85504	28	0
71	88680	29	0
71	91856	30	0
71	95032	31	0
71	98208	32	0
71	101384	33	0
71	104560	34	0
71	107736	35	0
71	110912	36	0
71	114088	37	0
71	117264	38	0
71	120440	39	0
71	123616	40	0
71	126792	41	0
71	129968	42	0
71	133144	43	0
71	136320	44	0
71	139496	45	0
71	142818	46	0
71	145984	47	0
71	149150	48	0
71	152316	49	0
71	155482	50	0
71	158648	51	0
71	161814	52	0
71	164980	53	0
71	168146	54	0
71	171312	55	0
71	174478	56	0
71	177644	57	0
71	180810	58	0
71	183976	59	0
71	187142	60	0
71	190308	61	0
71	193474	62	0
71	196640	63	0
71	199806	64	0
71	202972	65	0
71	206138	66	0
71	209304	67	0
71	212470	68	0
71	215636	69	0
71	218802	70	0
71	221968	71	0
71	225134	72	0
71	228300	73	0
71	231466	74	0
71	234632	75	0
71	237798	76	0
71	240964	77	0
71	244130	78	0
71	247296	79	0
71	250462	80	0
71	253628	81	0
71	256794	82	0
71	259960	83	0
71	263126	84	0
71	266292	85	0
71	269458	86	0
71	272624	87	0
71	275790	88	0
71	278956	89	0
71	282122	90	0
71	285288	91	0
71	288454	92	0
71	291620	93	0
71	294786	94	0
71	297952	95	0
71	301118	96	0
71	304284	97	0
71	307450	98	0
71	310616	99	0
71	313782	100	0
72	2910	2	4
72	6076	3	4
72	9242	4	4
72	12408	5	4
72	15574	6	4
72	18740	7	4
72	21906	8	4
72	25072	9	4
72	28241	10	4
72	31513	11	4
72	34689	12	4
72	37865	13	4
72	41041	14	4
72	44217	15	4
72	47393	16	4
72	50569	17	4
72	53745	18	4
72	56921	19	4
72	60097	20	4
72	63273	21	4
72	66449	22	4
72	69625	23	4
72	72801	24	4
72	75977	25	4
72	79153	26	4
72	82329	27	4
72	85505	28	4
72	88681	29	4
72	91857	30	4
72	95033	31	4
72	98209	32	4
72	101385	33	4
72	104561	34	4
72	107737	35	4
72	110913	36	4
72	114089	37	4
72	117265	38	4
72	120441	39	4
72	123617	40	4
72	126793	41	4
72	129969	42	4
72	133145	43	4
72	136321	44	4
72	139497	45	4
72	142819	46	4
72	145985	47	4
72	149151	48	4
72	152317	49	4
72	155483	50	4
72	158649	51	4
72	161815	52	4
72	164981	53	4
72	168147	54	4
72	171313	55	4
72	174479	56	4
72	177645	57	4
72	180811	58	4
72	183977	59	4
72	187143	60	4
72	190309	61	4
72	193475	62	4
72	196641	63	4
72	199807	64	4
72	202973	65	4
72	206139	66	4
72	209305	67	4
72	212471	68	4
72	215637	69	4
72	218803	70	4
72	221969	71	4
72	225135	72	4
72	228301	73	4
72	231467	74	4
72	234633	75	4
72	237799	76	4
72	240965	77	4
72	244131	78	4
72	247297	79	4
72	250463	80	4
72	253629	81	4
72	256795	82	4
72	259961	83	4
72	263127	84	4
72	266293	85	4
72	269459	86	4
72	272625	87	4
72	275791	88	4
72	278957	89	4
72	282123	90	4
72	285289	91	4
72	288455	92	4
72	291621	93	4
72	294787	94	4
72	297953	95	4
72	301119	96	4
72	304285	97	4
72	307451	98	4
72	310617	99	4
72	313783	100	4
73	2910	2	0.016545
73	6076	3	0.01873
73	9242	4	0.01873
73	12408	5	0.01873
73	15574	6	0.01873
73	18740	7	0.01873
73	21906	8	0.01873
73	25072	9	0.01873
73	28241	10	0.01873
73	31513	11	0.018779317595
73	34689	12	0.01873
73	37865	13	0.01873
73	41041	14	0.01873
73	44217	15	0.01873
73	47393	16	0.01873
73	50569	17	0.01873
73	53745	18	0.01873
73	56921	19	0.01873
73	60097	20	0.01873
73	63273	21	0.01873
73	66449	22	0.01873
73	69625	23	0.01873
73	72801	24	0.01873
73	75977	25	0.01873
73	79153	26	0.01873
73	82329	27	0.01873
73	85505	28	0.01873
73	88681	29	0.01873
73	91857	30	0.01873
73	95033	31	0.01873
73	98209	32	0.01873
73	101385	33	0.01873
73	104561	34	0.01873
73	107737	35	0.01873
73	110913	36	0.01873
73	114089	37	0.01873
73	117265	38	0.01873
73	120441	39	0.01873
73	123617	40	0.01873
73	126793	41	0.01873
73	129969	42	0.01873
73	133145	43	0.01873
73	136321	44	0.01873
73	139497	45	0.01873
73	142819	46	0.019019126096
73	145985	47	0.01873
73	149151	48	0.01873
73	152317	49	0.01873
73	155483	50	0.01873
73	158649	51	0.01873
73	161815	52	0.01873
73	164981	53	0.01873
73	168147	54	0.01873
73	171313	55	0.01873
73	174479	56	0.01873
73	177645	57	0.01873
73	180811	58	0.01873
73	183977	59	0.01873
73	187143	60	0.01873
73	190309	61	0.01873
73	193475	62	0.01873
73	196641	63	0.01873
73	199807	64	0.01873
73	202973	65	0.01873
73	206139	66	0.01873
73	209305	67	0.01873
73	212471	68	0.01873
73	215637	69	0.01873
73	218803	70	0.01873
73	221969	71	0.01873
73	225135	72	0.01873
73	228301	73	0.01873
73	231467	74	0.01873
73	234633	75	0.01873
73	237799	76	0.01873
73	240965	77	0.01873
73	244131	78	0.01873
73	247297	79	0.01873
73	250463	80	0.01873
73	253629	81	0.01873
73	256795	82	0.01873
73	259961	83	0.01873
73	263127	84	0.01873
73	266293	85	0.01873
73	269459	86	0.01873
73	272625	87	0.01873
73	275791	88	0.01873
73	278957	89	0.01873
73	282123	90	0.01873
73	285289	91	0.01873
73	288455	92	0.01873
73	291621	93	0.01873
73	294787	94	0.01873
73	297953	95	0.01873
73	301119	96	0.01873
73	304285	97	0.01873
73	307451	98	0.01873
73	310617	99	0.01873
73	313783	100	0.01873
74	2910	2	0
74	6076	3	0
74	9242	4	0
74	12408	5	0
74	15574	6	0
74	18740	7	0
74	21906	8	0
74	25072	9	0
74	28241	10	0
74	31513	11	0
74	34689	12	0
74	37865	13	0
74	41041	14	0
74	44217	15	0
74	47393	16	0
74	50569	17	0
74	53745	18	0
74	56921	19	0
74	60097	20	0
74	63273	21	0
74	66449	22	0
74	69625	23	0
74	72801	24	0
74	75977	25	0
74	79153	26	0
74	82329	27	0
74	85505	28	0
74	88681	29	0
74	91857	30	0
74	95033	31	0
74	98209	32	0
74	101385	33	0
74	104561	34	0
74	107737	35	0
74	110913	36	0
74	114089	37	0
74	117265	38	0
74	120441	39	0
74	123617	40	0
74	126793	41	0
74	129969	42	0
74	133145	43	0
74	136321	44	0
74	139497	45	0
74	142819	46	0
74	145985	47	0
74	149151	48	0
74	152317	49	0
74	155483	50	0
74	158649	51	0
74	161815	52	0
74	164981	53	0
74	168147	54	0
74	171313	55	0
74	174479	56	0
74	177645	57	0
74	180811	58	0
74	183977	59	0
74	187143	60	0
74	190309	61	0
74	193475	62	0
74	196641	63	0
74	199807	64	0
74	202973	65	0
74	206139	66	0
74	209305	67	0
74	212471	68	0
74	215637	69	0
74	218803	70	0
74	221969	71	0
74	225135	72	0
74	228301	73	0
74	231467	74	0
74	234633	75	0
74	237799	76	0
74	240965	77	0
74	244131	78	0
74	247297	79	0
74	250463	80	0
74	253629	81	0
74	256795	82	0
74	259961	83	0
74	263127	84	0
74	266293	85	0
74	269459	86	0
74	272625	87	0
74	275791	88	0
74	278957	89	0
74	282123	90	0
74	285289	91	0
74	288455	92	0
74	291621	93	0
74	294787	94	0
74	297953	95	0
74	301119	96	0
74	304285	97	0
74	307451	98	0
74	310617	99	0
74	313783	100	0
75	2911	2	5
75	6077	3	5
75	9243	4	5
75	12409	5	5
75	15575	6	5
75	18741	7	5
75	21907	8	5
75	25073	9	5
75	28242	10	5
75	31514	11	5
75	34690	12	5
75	37866	13	5
75	41042	14	5
75	44218	15	5
75	47394	16	5
75	50570	17	5
75	53746	18	5
75	56922	19	5
75	60098	20	5
75	63274	21	5
75	66450	22	5
75	69626	23	5
75	72802	24	5
75	75978	25	5
75	79154	26	5
75	82330	27	5
75	85506	28	5
75	88682	29	5
75	91858	30	5
75	95034	31	5
75	98210	32	5
75	101386	33	5
75	104562	34	5
75	107738	35	5
75	110914	36	5
75	114090	37	5
75	117266	38	5
75	120442	39	5
75	123618	40	5
75	126794	41	5
75	129970	42	5
75	133146	43	5
75	136322	44	5
75	139498	45	5
75	142820	46	5
75	145986	47	5
75	149152	48	5
75	152318	49	5
75	155484	50	5
75	158650	51	5
75	161816	52	5
75	164982	53	5
75	168148	54	5
75	171314	55	5
75	174480	56	5
75	177646	57	5
75	180812	58	5
75	183978	59	5
75	187144	60	5
75	190310	61	5
75	193476	62	5
75	196642	63	5
75	199808	64	5
75	202974	65	5
75	206140	66	5
75	209306	67	5
75	212472	68	5
75	215638	69	5
75	218804	70	5
75	221970	71	5
75	225136	72	5
75	228302	73	5
75	231468	74	5
75	234634	75	5
75	237800	76	5
75	240966	77	5
75	244132	78	5
75	247298	79	5
75	250464	80	5
75	253630	81	5
75	256796	82	5
75	259962	83	5
75	263128	84	5
75	266294	85	5
75	269460	86	5
75	272626	87	5
75	275792	88	5
75	278958	89	5
75	282124	90	5
75	285290	91	5
75	288456	92	5
75	291622	93	5
75	294788	94	5
75	297954	95	5
75	301120	96	5
75	304286	97	5
75	307452	98	5
75	310618	99	5
75	313784	100	5
76	2911	2	0.016545
76	6077	3	0.01873
76	9243	4	0.01873
76	12409	5	0.01873
76	15575	6	0.01873
76	18741	7	0.01873
76	21907	8	0.01873
76	25073	9	0.01873
76	28242	10	0.01873
76	31514	11	0.018778317595
76	34690	12	0.01873
76	37866	13	0.01873
76	41042	14	0.01873
76	44218	15	0.01873
76	47394	16	0.01873
76	50570	17	0.01873
76	53746	18	0.01873
76	56922	19	0.01873
76	60098	20	0.01873
76	63274	21	0.01873
76	66450	22	0.01873
76	69626	23	0.01873
76	72802	24	0.01873
76	75978	25	0.01873
76	79154	26	0.01873
76	82330	27	0.01873
76	85506	28	0.01873
76	88682	29	0.01873
76	91858	30	0.01873
76	95034	31	0.01873
76	98210	32	0.01873
76	101386	33	0.01873
76	104562	34	0.01873
76	107738	35	0.01873
76	110914	36	0.01873
76	114090	37	0.01873
76	117266	38	0.01873
76	120442	39	0.01873
76	123618	40	0.01873
76	126794	41	0.01873
76	129970	42	0.01873
76	133146	43	0.01873
76	136322	44	0.01873
76	139498	45	0.01873
76	142820	46	0.019019126096
76	145986	47	0.01873
76	149152	48	0.01873
76	152318	49	0.01873
76	155484	50	0.01873
76	158650	51	0.01873
76	161816	52	0.01873
76	164982	53	0.01873
76	168148	54	0.01873
76	171314	55	0.01873
76	174480	56	0.01873
76	177646	57	0.01873
76	180812	58	0.01873
76	183978	59	0.01873
76	187144	60	0.01873
76	190310	61	0.01873
76	193476	62	0.01873
76	196642	63	0.01873
76	199808	64	0.01873
76	202974	65	0.01873
76	206140	66	0.01873
76	209306	67	0.01873
76	212472	68	0.01873
76	215638	69	0.01873
76	218804	70	0.01873
76	221970	71	0.01873
76	225136	72	0.01873
76	228302	73	0.01873
76	231468	74	0.01873
76	234634	75	0.01873
76	237800	76	0.01873
76	240966	77	0.01873
76	244132	78	0.01873
76	247298	79	0.01873
76	250464	80	0.01873
76	253630	81	0.01873
76	256796	82	0.01873
76	259962	83	0.01873
76	263128	84	0.01873
76	266294	85	0.01873
76	269460	86	0.01873
76	272626	87	0.01873
76	275792	88	0.01873
76	278958	89	0.01873
76	282124	90	0.01873
76	285290	91	0.01873
76	288456	92	0.01873
76	291622	93	0.01873
76	294788	94	0.01873
76	297954	95	0.01873
76	301120	96	0.01873
76	304286	97	0.01873
76	307452	98	0.01873
76	310618	99	0.01873
76	313784	100	0.01873
77	2911	2	0
77	6077	3	0
77	9243	4	0
77	12409	5	0
77	15575	6	0
77	18741	7	0
77	21907	8	0
77	25073	9	0
77	28242	10	0
77	31514	11	0
77	34690	12	0
77	37866	13	0
77	41042	14	0
77	44218	15	0
77	47394	16	0
77	50570	17	0
77	53746	18	0
77	56922	19	0
77	60098	20	0
77	63274	21	0
77	66450	22	0
77	69626	23	0
77	72802	24	0
77	75978	25	0
77	79154	26	0
77	82330	27	0
77	85506	28	0
77	88682	29	0
77	91858	30	0
77	95034	31	0
77	98210	32	0
77	101386	33	0
77	104562	34	0
77	107738	35	0
77	110914	36	0
77	114090	37	0
77	117266	38	0
77	120442	39	0
77	123618	40	0
77	126794	41	0
77	129970	42	0
77	133146	43	0
77	136322	44	0
77	139498	45	0
77	142820	46	0
77	145986	47	0
77	149152	48	0
77	152318	49	0
77	155484	50	0
77	158650	51	0
77	161816	52	0
77	164982	53	0
77	168148	54	0
77	171314	55	0
77	174480	56	0
77	177646	57	0
77	180812	58	0
77	183978	59	0
77	187144	60	0
77	190310	61	0
77	193476	62	0
77	196642	63	0
77	199808	64	0
77	202974	65	0
77	206140	66	0
77	209306	67	0
77	212472	68	0
77	215638	69	0
77	218804	70	0
77	221970	71	0
77	225136	72	0
77	228302	73	0
77	231468	74	0
77	234634	75	0
77	237800	76	0
77	240966	77	0
77	244132	78	0
77	247298	79	0
77	250464	80	0
77	253630	81	0
77	256796	82	0
77	259962	83	0
77	263128	84	0
77	266294	85	0
77	269460	86	0
77	272626	87	0
77	275792	88	0
77	278958	89	0
77	282124	90	0
77	285290	91	0
77	288456	92	0
77	291622	93	0
77	294788	94	0
77	297954	95	0
77	301120	96	0
77	304286	97	0
77	307452	98	0
77	310618	99	0
77	313784	100	0

