version 3
run BreakRanksNoGui-100-20240710-13:40:16-257740
attr configname BreakRanksNoGui
attr datetime 20240710-13:40:16
attr datetimef 20240710-134016
attr experiment BreakRanksNoGui
attr inifile omnetpp.ini
attr iterationvars "$nCars=2, $platoonSize=2, $nLanes=1, $ploegH=0.5, $controller=1, $headway=0.1, $leaderHeadway=1.2, $leaderSpeed=110, $breakRanksSafetyDistance=5, $minSpeed=100, $maxSpeed=120, $beaconInterval=0.1, $priority=4, $packetSize=200, $sController=\"CACC\", $0=2, $1=0"
attr iterationvarsd nCars=2/platoonSize=2/nLanes=1/ploegH=0.5/controller=1/headway=0.1/leaderHeadway=1.2/leaderSpeed=110/breakRanksSafetyDistance=5/minSpeed=100/maxSpeed=120/beaconInterval=0.1/priority=4/packetSize=200/sController=CACC/2/0
attr iterationvarsf nCars=2,platoonSize=2,nLanes=1,ploegH=0.5,controller=1,headway=0.1,leaderHeadway=1.2,leaderSpeed=110,breakRanksSafetyDistance=5,minSpeed=100,maxSpeed=120,beaconInterval=0.1,priority=4,packetSize=200,sController=CACC,2,0-
attr measurement "$nCars=2, $platoonSize=2, $nLanes=1, $ploegH=0.5, $controller=1, $headway=0.1, $leaderHeadway=1.2, $leaderSpeed=110, $breakRanksSafetyDistance=5, $minSpeed=100, $maxSpeed=120, $beaconInterval=0.1, $priority=4, $packetSize=200, $sController=\"CACC\", $0=2, $1=0"
attr network Highway
attr processid 257740
attr repetition 0
attr replication #0
attr resultdir results
attr runnumber 100
attr seedset 0
itervar beaconInterval 0.1
itervar breakRanksSafetyDistance 5
itervar controller 1
itervar headway 0.1
itervar leaderHeadway 1.2
itervar leaderSpeed 110
itervar maxSpeed 120
itervar minSpeed 100
itervar nCars 2
itervar nLanes 1
itervar packetSize 200
itervar platoonSize 2
itervar ploegH 0.5
itervar priority 4
itervar sController "\"CACC\""
config image-path ../../../veins/images
config repeat 10
config extends BreakRanks
config *.manager.command "\"sumo\""
config *.manager.ignoreGuiCommands true
config output-vector-file "results/BreakRanks_1_0.1_110_5_2 /result_0.vec"
config output-scalar-file "results/BreakRanks_1_0.1_110_5_2 /result_0.sca"
config extends Platooning
config *.node[*].scenario_type "\"BreakRanksScenario\""
config *.manager.command "\"sumo-gui\""
config *.node[*].scenario_type "\"SimpleScenario\""
config cmdenv-express-mode true
config cmdenv-autoflush true
config cmdenv-status-frequency 15s
config num-rngs 6
config network Highway
config debug-on-errors true
config print-undisposed true
config *.playgroundSizeX 65000m
config *.playgroundSizeY 25000m
config *.playgroundSizeZ 50m
config sim-time-limit "100 s"
config *.annotations.draw false
config *.obstacles.debug false
config *.world.useTorus false
config *.world.use2D false
config *.manager.updateInterval 0.01s
config *.manager.host "\"localhost\""
config *.manager.moduleType "\"org.car2x.plexe.PlatoonCar\""
config *.manager.moduleName "\"node\""
config *.manager.moduleDisplayString "\"\""
config *.manager.autoShutdown true
config *.manager.margin 25
config *.connectionManager.sendDirect true
config *.connectionManager.maxInterfDist 2600m
config *.connectionManager.drawMaxIntfDist false
config *.**.nic.mac1609_4.useServiceChannel false
config *.**.nic.mac1609_4.txPower 100mW
config *.**.nic.mac1609_4.bitrate 6Mbps
config *.**.nic.mac1609_4.useAcks true
config *.**.nic.mac1609_4.ackErrorRate 0.0
config *.**.nic.mac1609_4.frameErrorRate 0.0
config *.**.nic.phy80211p.minPowerLevel -94dBm
config *.**.nic.phy80211p.maxTXPower 100mW
config *.**.nic.phy80211p.useNoiseFloor true
config *.**.nic.phy80211p.noiseFloor -95dBm
config *.**.nic.phy80211p.decider "xmldoc(\"config.xml\")"
config *.**.nic.phy80211p.analogueModels "xmldoc(\"config.xml\")"
config *.**.nic.phy80211p.usePropagationDelay true
config *.node[*].mobility.x 0
config *.node[*].mobility.y 0
config *.node[*].mobility.z 1.895
config seed-set 0
config **.seed 0
config *.node[*].prot.rng-0 2
config *.node[*].appl.rng-0 3
config *.node[*].scenario.rng-0 4
config **.traffic.rng-0 5
config *.manager.configFile "\"./sumocfg/freeway.sumo.cfg\""
config *.manager.launchConfig "xmldoc(\"./sumocfg/freeway.launchd.xml\")"
config **.numberOfCars 2
config **.numberOfCarsPerPlatoon 2
config **.numberOfLanes 1
config *.node[*].helper_type "\"PositionHelper\""
config *.node[*].scenario.caccC1 0.5
config *.node[*].scenario.caccXi 1
config *.node[*].scenario.caccOmegaN "0.2 Hz"
config *.node[*].scenario.caccSpacing "2 m"
config *.node[*].scenario.engineTau "0.5 s"
config *.node[*].scenario.ploegH 0.5s
config *.node[*].scenario.ploegKp 0.2
config *.node[*].scenario.ploegKd 0.7
config *.node[*].scenario.useRealisticEngine false
config *.node[*].scenario.useControllerAcceleration true
config *.node[*].scenario.nLanes 1
config **.numericController 1
config **.headway 0.1s
config *.node[*].scenario.accHeadway 0.1s
config *.node[*].scenario.leaderHeadway 1.2s
config *.node[*].scenario.leaderSpeed 110kmph
config *.node[*].appl_type "\"SimplePlatooningApp\""
config *.node[*].appl.*.scalar-recording true
config *.node[*].appl.*.vector-recording true
config *.node[0].appl.breakRanksSafetyDistance 5m
config *.node[*].appl.minSpeed 100kmph
config *.node[*].appl.maxSpeed 120kmph
config *.node[*].protocol_type "\"SimplePlatooningBeaconing\""
config *.node[*].prot.*.scalar-recording true
config *.node[*].prot.*.vector-recording true
config *.node[*].prot.beaconingInterval 0.1s
config *.node[*].prot.priority 4
config *.node[*].prot.packetSize 200
config **.traffic_type "\"PlatoonsTrafficManager\""
config **.traffic.platoonInsertTime "1 s"
config **.traffic.platoonInsertSpeed 110kmph
config **.traffic.nCars 2
config **.traffic.platoonSize 2
config **.traffic.nLanes 1
config **.traffic.platooningVType "\"vtypeauto\""
config **.traffic.controller "\"CACC\""
config **.traffic.platoonInsertDistance 2m
config **.traffic.platoonInsertHeadway 0s
config **.traffic.platoonLeaderHeadway 1.2s
config **.scalar-recording false
config **.vector-recording false

vector 0 Highway.node[0].appl distance ETV
vector 1 Highway.node[0].appl relativeSpeed ETV
vector 2 Highway.node[0].appl nodeId ETV
vector 3 Highway.node[0].appl acceleration ETV
vector 4 Highway.node[0].appl controllerAcceleration ETV
vector 5 Highway.node[0].appl speed ETV
vector 6 Highway.node[0].appl posx ETV
vector 7 Highway.node[0].appl posy ETV
vector 8 Highway.node[1].appl distance ETV
vector 9 Highway.node[1].appl relativeSpeed ETV
vector 10 Highway.node[1].appl nodeId ETV
vector 11 Highway.node[1].appl acceleration ETV
vector 12 Highway.node[1].appl controllerAcceleration ETV
vector 13 Highway.node[1].appl speed ETV
vector 14 Highway.node[1].appl posx ETV
vector 15 Highway.node[1].appl posy ETV
vector 16 Highway.node[1].prot leaderDelay ETV
vector 17 Highway.node[1].prot leaderDelayId ETV
vector 18 Highway.node[1].prot frontDelay ETV
vector 19 Highway.node[1].prot frontDelayId ETV
vector 20 Highway.node[0].prot nodeId ETV
vector 21 Highway.node[0].prot busyTime ETV
vector 22 Highway.node[0].prot collisions ETV
vector 23 Highway.node[1].prot nodeId ETV
vector 24 Highway.node[1].prot busyTime ETV
vector 25 Highway.node[1].prot collisions ETV
0	113	1.11	-1
0	161	1.21	-1
0	209	1.31	-1
0	257	1.41	-1
0	305	1.51	-1
0	353	1.61	-1
0	401	1.71	-1
0	449	1.81	-1
0	497	1.91	-1
0	547	2.01	-1
0	595	2.11	-1
0	643	2.21	-1
0	691	2.31	-1
0	739	2.41	-1
0	787	2.51	-1
0	835	2.61	-1
0	883	2.71	-1
0	931	2.81	-1
0	979	2.91	-1
0	1029	3.01	-1
0	1077	3.11	-1
0	1125	3.21	-1
0	1173	3.31	-1
0	1221	3.41	-1
0	1269	3.51	-1
0	1317	3.61	-1
0	1365	3.71	-1
0	1413	3.81	-1
0	1461	3.91	-1
0	1511	4.01	-1
0	1559	4.11	-1
0	1607	4.21	-1
0	1655	4.31	-1
0	1703	4.41	-1
0	1751	4.51	-1
0	1799	4.61	-1
0	1847	4.71	-1
0	1895	4.81	-1
0	1943	4.91	-1
0	1993	5.01	-1
0	2041	5.11	-1
0	2089	5.21	-1
0	2137	5.31	-1
0	2185	5.41	-1
0	2233	5.51	-1
0	2281	5.61	-1
0	2329	5.71	-1
0	2377	5.81	-1
0	2425	5.91	-1
0	2475	6.01	-1
0	2523	6.11	-1
0	2571	6.21	-1
0	2619	6.31	-1
0	2667	6.41	-1
0	2715	6.51	-1
0	2763	6.61	-1
0	2811	6.71	-1
0	2859	6.81	-1
0	2907	6.91	-1
0	2957	7.01	-1
0	3005	7.11	-1
0	3053	7.21	-1
0	3101	7.31	-1
0	3149	7.41	-1
0	3197	7.51	-1
0	3245	7.61	-1
0	3293	7.71	-1
0	3341	7.81	-1
0	3389	7.91	-1
0	3439	8.01	-1
0	3487	8.11	-1
0	3535	8.21	-1
0	3583	8.31	-1
0	3631	8.41	-1
0	3679	8.51	-1
0	3727	8.61	-1
0	3775	8.71	-1
0	3823	8.81	-1
0	3871	8.91	-1
0	3921	9.01	-1
0	3969	9.11	-1
0	4017	9.21	-1
0	4065	9.31	-1
0	4113	9.41	-1
0	4161	9.51	-1
0	4209	9.61	-1
0	4257	9.71	-1
0	4305	9.81	-1
0	4353	9.91	-1
0	4423	10.01	-1
0	4472	10.11	-1
0	4521	10.21	-1
0	4570	10.31	-1
0	4619	10.41	-1
0	4668	10.51	-1
0	4717	10.61	-1
0	4766	10.71	-1
0	4815	10.81	-1
0	4864	10.91	-1
0	4915	11.01	-1
0	4964	11.11	-1
0	5013	11.21	-1
0	5062	11.31	-1
0	5111	11.41	-1
0	5160	11.51	-1
0	5209	11.61	-1
0	5258	11.71	-1
0	5307	11.81	-1
0	5356	11.91	-1
0	5407	12.01	-1
0	5456	12.11	-1
0	5505	12.21	-1
0	5554	12.31	-1
0	5603	12.41	-1
0	5652	12.51	-1
0	5701	12.61	-1
0	5750	12.71	-1
0	5799	12.81	-1
0	5848	12.91	-1
0	5899	13.01	-1
0	5948	13.11	-1
0	5997	13.21	-1
0	6046	13.31	-1
0	6095	13.41	-1
0	6144	13.51	-1
0	6193	13.61	-1
0	6242	13.71	-1
0	6291	13.81	-1
0	6340	13.91	-1
0	6391	14.01	-1
0	6440	14.11	-1
0	6489	14.21	-1
0	6538	14.31	-1
0	6587	14.41	-1
0	6636	14.51	-1
0	6685	14.61	-1
0	6734	14.71	-1
0	6783	14.81	-1
0	6832	14.91	-1
0	6883	15.01	-1
0	6932	15.11	-1
0	6981	15.21	-1
0	7030	15.31	-1
0	7079	15.41	-1
0	7128	15.51	-1
0	7177	15.61	-1
0	7226	15.71	-1
0	7275	15.81	-1
0	7324	15.91	-1
0	7375	16.01	-1
0	7424	16.11	-1
0	7473	16.21	-1
0	7522	16.31	-1
0	7571	16.41	-1
0	7620	16.51	-1
0	7669	16.61	-1
0	7718	16.71	-1
0	7767	16.81	-1
0	7816	16.91	-1
0	7867	17.01	-1
0	7916	17.11	-1
0	7965	17.21	-1
0	8014	17.31	-1
0	8063	17.41	-1
0	8112	17.51	-1
0	8161	17.61	-1
0	8210	17.71	-1
0	8259	17.81	-1
0	8308	17.91	-1
0	8359	18.01	-1
0	8408	18.11	-1
0	8457	18.21	-1
0	8506	18.31	-1
0	8555	18.41	-1
0	8604	18.51	-1
0	8653	18.61	-1
0	8702	18.71	-1
0	8751	18.81	-1
0	8800	18.91	-1
0	8851	19.01	-1
0	8900	19.11	-1
0	8949	19.21	-1
0	8998	19.31	-1
0	9047	19.41	-1
0	9096	19.51	-1
0	9145	19.61	-1
0	9194	19.71	-1
0	9243	19.81	-1
0	9292	19.91	-1
0	9343	20.01	-1
0	9392	20.11	-1
0	9441	20.21	-1
0	9490	20.31	-1
0	9539	20.41	-1
0	9588	20.51	-1
0	9637	20.61	-1
0	9686	20.71	-1
0	9735	20.81	-1
0	9784	20.91	-1
0	9835	21.01	-1
0	9884	21.11	-1
0	9933	21.21	-1
0	9982	21.31	-1
0	10031	21.41	-1
0	10080	21.51	-1
0	10129	21.61	-1
0	10178	21.71	-1
0	10227	21.81	-1
0	10276	21.91	-1
0	10327	22.01	-1
0	10376	22.11	-1
0	10425	22.21	-1
0	10474	22.31	-1
0	10523	22.41	-1
0	10572	22.51	-1
0	10621	22.61	-1
0	10670	22.71	-1
0	10719	22.81	-1
0	10768	22.91	-1
0	10819	23.01	-1
0	10868	23.11	-1
0	10917	23.21	-1
0	10966	23.31	-1
0	11015	23.41	-1
0	11064	23.51	-1
0	11113	23.61	-1
0	11162	23.71	-1
0	11211	23.81	-1
0	11260	23.91	-1
0	11311	24.01	-1
0	11360	24.11	-1
0	11409	24.21	-1
0	11458	24.31	-1
0	11507	24.41	-1
0	11556	24.51	-1
0	11605	24.61	-1
0	11654	24.71	-1
0	11703	24.81	-1
0	11752	24.91	-1
0	11803	25.01	-1
0	11852	25.11	-1
0	11901	25.21	-1
0	11950	25.31	-1
0	11999	25.41	-1
0	12048	25.51	-1
0	12097	25.61	-1
0	12146	25.71	-1
0	12195	25.81	-1
0	12244	25.91	-1
0	12295	26.01	-1
0	12344	26.11	-1
0	12393	26.21	-1
0	12442	26.31	-1
0	12491	26.41	-1
0	12540	26.51	-1
0	12589	26.61	-1
0	12638	26.71	-1
0	12687	26.81	-1
0	12736	26.91	-1
0	12787	27.01	-1
0	12836	27.11	-1
0	12885	27.21	-1
0	12934	27.31	-1
0	12983	27.41	-1
0	13032	27.51	-1
0	13081	27.61	-1
0	13130	27.71	-1
0	13179	27.81	-1
0	13228	27.91	-1
0	13279	28.01	-1
0	13328	28.11	-1
0	13377	28.21	-1
0	13426	28.31	-1
0	13475	28.41	-1
0	13524	28.51	-1
0	13573	28.61	-1
0	13622	28.71	-1
0	13671	28.81	-1
0	13720	28.91	-1
0	13771	29.01	-1
0	13820	29.11	-1
0	13869	29.21	-1
0	13918	29.31	-1
0	13967	29.41	-1
0	14016	29.51	-1
0	14065	29.61	-1
0	14114	29.71	-1
0	14163	29.81	-1
0	14212	29.91	-1
0	14263	30.01	-1
0	14312	30.11	-1
0	14361	30.21	-1
0	14410	30.31	-1
0	14459	30.41	-1
0	14508	30.51	-1
0	14557	30.61	-1
0	14606	30.71	-1
0	14655	30.81	-1
0	14704	30.91	-1
0	14755	31.01	-1
0	14804	31.11	-1
0	14853	31.21	-1
0	14902	31.31	-1
0	14951	31.41	-1
0	15000	31.51	-1
0	15049	31.61	-1
0	15098	31.71	-1
0	15147	31.81	-1
0	15196	31.91	-1
0	15247	32.01	-1
0	15296	32.11	-1
0	15345	32.21	-1
0	15394	32.31	-1
0	15443	32.41	-1
0	15492	32.51	-1
0	15541	32.61	-1
0	15590	32.71	-1
0	15639	32.81	-1
0	15688	32.91	-1
0	15739	33.01	-1
0	15788	33.11	-1
0	15837	33.21	-1
0	15886	33.31	-1
0	15935	33.41	-1
0	15984	33.51	-1
0	16033	33.61	-1
0	16082	33.71	-1
0	16131	33.81	-1
0	16180	33.91	-1
0	16231	34.01	-1
0	16280	34.11	-1
0	16329	34.21	-1
0	16378	34.31	-1
0	16427	34.41	-1
0	16476	34.51	-1
0	16525	34.61	-1
0	16574	34.71	-1
0	16623	34.81	-1
0	16672	34.91	-1
0	16723	35.01	-1
0	16772	35.11	-1
0	16821	35.21	-1
0	16870	35.31	-1
0	16919	35.41	-1
0	16968	35.51	-1
0	17017	35.61	-1
0	17066	35.71	-1
0	17115	35.81	-1
0	17164	35.91	-1
0	17215	36.01	-1
0	17264	36.11	-1
0	17313	36.21	-1
0	17362	36.31	-1
0	17477	36.41	-1
0	17525	36.51	-1
0	17573	36.61	-1
0	17621	36.71	-1
0	17669	36.81	-1
0	17717	36.91	-1
0	17767	37.01	-1
0	17815	37.11	-1
0	17863	37.21	-1
0	17911	37.31	-1
0	17959	37.41	-1
0	18007	37.51	-1
0	18055	37.61	-1
0	18103	37.71	-1
0	18151	37.81	-1
0	18199	37.91	-1
0	18249	38.01	-1
0	18297	38.11	-1
0	18345	38.21	-1
0	18393	38.31	-1
0	18441	38.41	-1
0	18489	38.51	-1
0	18537	38.61	-1
0	18585	38.71	-1
0	18633	38.81	-1
0	18681	38.91	-1
0	18731	39.01	-1
0	18779	39.11	-1
0	18827	39.21	-1
0	18875	39.31	-1
0	18923	39.41	-1
0	18971	39.51	-1
0	19019	39.61	-1
0	19067	39.71	-1
0	19115	39.81	-1
0	19163	39.91	-1
0	19213	40.01	-1
0	19261	40.11	-1
0	19309	40.21	-1
0	19357	40.31	-1
0	19405	40.41	-1
0	19453	40.51	-1
0	19501	40.61	-1
0	19549	40.71	-1
0	19597	40.81	-1
0	19645	40.91	-1
0	19695	41.01	-1
0	19743	41.11	-1
0	19791	41.21	-1
0	19839	41.31	-1
0	19887	41.41	-1
0	19935	41.51	-1
0	19983	41.61	-1
0	20031	41.71	-1
0	20079	41.81	-1
0	20127	41.91	-1
0	20177	42.01	-1
0	20225	42.11	-1
0	20273	42.21	-1
0	20321	42.31	-1
0	20369	42.41	-1
0	20417	42.51	-1
0	20465	42.61	-1
0	20513	42.71	-1
0	20561	42.81	-1
0	20609	42.91	-1
0	20659	43.01	-1
0	20707	43.11	-1
0	20755	43.21	-1
0	20803	43.31	-1
0	20851	43.41	-1
0	20899	43.51	-1
0	20947	43.61	-1
0	20995	43.71	-1
0	21043	43.81	-1
0	21091	43.91	-1
0	21141	44.01	-1
0	21189	44.11	-1
0	21237	44.21	-1
0	21285	44.31	-1
0	21333	44.41	-1
0	21381	44.51	-1
0	21429	44.61	-1
0	21477	44.71	-1
0	21525	44.81	-1
0	21573	44.91	-1
0	21623	45.01	-1
0	21671	45.11	-1
0	21719	45.21	-1
0	21767	45.31	-1
0	21815	45.41	-1
0	21863	45.51	-1
0	21911	45.61	-1
0	21959	45.71	-1
0	22007	45.81	-1
0	22055	45.91	-1
0	22105	46.01	-1
0	22153	46.11	-1
0	22201	46.21	-1
0	22249	46.31	-1
0	22297	46.41	-1
0	22345	46.51	-1
0	22393	46.61	-1
0	22441	46.71	-1
0	22489	46.81	-1
0	22537	46.91	-1
0	22587	47.01	-1
0	22635	47.11	-1
0	22683	47.21	-1
0	22731	47.31	-1
0	22779	47.41	-1
0	22827	47.51	-1
0	22875	47.61	-1
0	22923	47.71	-1
0	22971	47.81	-1
0	23019	47.91	-1
0	23069	48.01	-1
0	23117	48.11	-1
0	23165	48.21	-1
0	23213	48.31	-1
0	23261	48.41	-1
0	23309	48.51	-1
0	23357	48.61	-1
0	23405	48.71	-1
0	23453	48.81	-1
0	23501	48.91	-1
0	23551	49.01	-1
0	23599	49.11	-1
0	23647	49.21	-1
0	23695	49.31	-1
0	23743	49.41	-1
0	23791	49.51	-1
0	23839	49.61	-1
0	23887	49.71	-1
0	23935	49.81	-1
0	23983	49.91	-1
0	24033	50.01	-1
0	24081	50.11	-1
0	24129	50.21	-1
0	24177	50.31	-1
0	24225	50.41	-1
0	24273	50.51	-1
0	24321	50.61	-1
0	24369	50.71	-1
0	24417	50.81	-1
0	24465	50.91	-1
0	24515	51.01	-1
0	24563	51.11	-1
0	24611	51.21	-1
0	24659	51.31	-1
0	24707	51.41	-1
0	24755	51.51	-1
0	24803	51.61	-1
0	24851	51.71	-1
0	24899	51.81	-1
0	24947	51.91	-1
0	24997	52.01	-1
0	25045	52.11	-1
0	25093	52.21	-1
0	25141	52.31	-1
0	25189	52.41	-1
0	25237	52.51	-1
0	25285	52.61	-1
0	25333	52.71	-1
0	25381	52.81	-1
0	25429	52.91	-1
0	25479	53.01	-1
0	25527	53.11	-1
0	25575	53.21	-1
0	25623	53.31	-1
0	25671	53.41	-1
0	25719	53.51	-1
0	25767	53.61	-1
0	25815	53.71	-1
0	25863	53.81	-1
0	25911	53.91	-1
0	25961	54.01	-1
0	26009	54.11	-1
0	26057	54.21	-1
0	26105	54.31	-1
0	26153	54.41	-1
0	26201	54.51	-1
0	26249	54.61	-1
0	26297	54.71	-1
0	26345	54.81	-1
0	26393	54.91	-1
0	26443	55.01	-1
0	26491	55.11	-1
0	26539	55.21	-1
0	26587	55.31	-1
0	26635	55.41	-1
0	26683	55.51	-1
0	26731	55.61	-1
0	26779	55.71	-1
0	26827	55.81	-1
0	26875	55.91	-1
0	26925	56.01	-1
0	26973	56.11	-1
0	27021	56.21	-1
0	27069	56.31	-1
0	27117	56.41	-1
0	27165	56.51	-1
0	27213	56.61	-1
0	27261	56.71	-1
0	27309	56.81	-1
0	27357	56.91	-1
0	27407	57.01	-1
0	27455	57.11	-1
0	27503	57.21	-1
0	27551	57.31	-1
0	27599	57.41	-1
0	27647	57.51	-1
0	27695	57.61	-1
0	27743	57.71	-1
0	27791	57.81	-1
0	27839	57.91	-1
0	27889	58.01	-1
0	27937	58.11	-1
0	27985	58.21	-1
0	28033	58.31	-1
0	28081	58.41	-1
0	28129	58.51	-1
0	28177	58.61	-1
0	28225	58.71	-1
0	28273	58.81	-1
0	28321	58.91	-1
0	28371	59.01	-1
0	28419	59.11	-1
0	28467	59.21	-1
0	28515	59.31	-1
0	28563	59.41	-1
0	28611	59.51	-1
0	28659	59.61	-1
0	28707	59.71	-1
0	28755	59.81	-1
0	28803	59.91	-1
0	28853	60.01	-1
0	28901	60.11	-1
0	28949	60.21	-1
0	28997	60.31	-1
0	29045	60.41	-1
0	29093	60.51	-1
0	29141	60.61	-1
0	29189	60.71	-1
0	29237	60.81	-1
0	29285	60.91	-1
0	29335	61.01	-1
0	29383	61.11	-1
0	29431	61.21	-1
0	29479	61.31	-1
0	29527	61.41	-1
0	29575	61.51	-1
0	29623	61.61	-1
0	29671	61.71	-1
0	29719	61.81	-1
0	29767	61.91	-1
0	29817	62.01	-1
0	29865	62.11	-1
0	29913	62.21	-1
0	29961	62.31	-1
0	30009	62.41	-1
0	30057	62.51	-1
0	30105	62.61	-1
0	30153	62.71	-1
0	30201	62.81	-1
0	30249	62.91	-1
0	30299	63.01	-1
0	30347	63.11	-1
0	30395	63.21	-1
0	30443	63.31	-1
0	30491	63.41	-1
0	30539	63.51	-1
0	30587	63.61	-1
0	30635	63.71	-1
0	30683	63.81	-1
0	30731	63.91	-1
0	30781	64.01	-1
0	30829	64.11	-1
0	30877	64.21	-1
0	30925	64.31	-1
0	30973	64.41	-1
0	31021	64.51	-1
0	31069	64.61	-1
0	31117	64.71	-1
0	31165	64.81	-1
0	31213	64.91	-1
0	31263	65.01	-1
0	31311	65.11	-1
0	31359	65.21	-1
0	31407	65.31	-1
0	31455	65.41	-1
0	31503	65.51	-1
0	31551	65.61	-1
0	31599	65.71	-1
0	31647	65.81	-1
0	31695	65.91	-1
0	31745	66.01	-1
0	31793	66.11	-1
0	31841	66.21	-1
0	31889	66.31	-1
0	31937	66.41	-1
0	31985	66.51	-1
0	32033	66.61	-1
0	32081	66.71	-1
0	32129	66.81	-1
0	32177	66.91	-1
0	32227	67.01	-1
0	32275	67.11	-1
0	32323	67.21	-1
0	32371	67.31	-1
0	32419	67.41	-1
0	32467	67.51	-1
0	32515	67.61	-1
0	32563	67.71	-1
0	32611	67.81	-1
0	32659	67.91	-1
0	32709	68.01	-1
0	32757	68.11	-1
0	32805	68.21	-1
0	32853	68.31	-1
0	32901	68.41	-1
0	32949	68.51	-1
0	32997	68.61	-1
0	33045	68.71	-1
0	33093	68.81	-1
0	33141	68.91	-1
0	33191	69.01	-1
0	33239	69.11	-1
0	33287	69.21	-1
0	33335	69.31	-1
0	33383	69.41	-1
0	33431	69.51	-1
0	33479	69.61	-1
0	33527	69.71	-1
0	33575	69.81	-1
0	33623	69.91	-1
0	33673	70.01	-1
0	33721	70.11	-1
0	33769	70.21	-1
0	33817	70.31	-1
0	33865	70.41	-1
0	33913	70.51	-1
0	33961	70.61	-1
0	34009	70.71	-1
0	34057	70.81	-1
0	34105	70.91	-1
0	34155	71.01	-1
0	34203	71.11	-1
0	34251	71.21	-1
0	34299	71.31	-1
0	34347	71.41	-1
0	34395	71.51	-1
0	34443	71.61	-1
0	34491	71.71	-1
0	34539	71.81	-1
0	34587	71.91	-1
0	34637	72.01	-1
0	34685	72.11	-1
0	34733	72.21	-1
0	34781	72.31	-1
0	34829	72.41	-1
0	34877	72.51	-1
0	34925	72.61	-1
0	34973	72.71	-1
0	35021	72.81	-1
0	35069	72.91	-1
0	35119	73.01	-1
0	35167	73.11	-1
0	35215	73.21	-1
0	35263	73.31	-1
0	35311	73.41	-1
0	35359	73.51	-1
0	35407	73.61	-1
0	35455	73.71	-1
0	35503	73.81	-1
0	35551	73.91	-1
0	35601	74.01	-1
0	35649	74.11	-1
0	35697	74.21	-1
0	35745	74.31	-1
0	35793	74.41	-1
0	35841	74.51	-1
0	35889	74.61	-1
0	35937	74.71	-1
0	35985	74.81	-1
0	36033	74.91	-1
0	36083	75.01	-1
0	36131	75.11	-1
0	36179	75.21	-1
0	36227	75.31	-1
0	36275	75.41	-1
0	36323	75.51	-1
0	36371	75.61	-1
0	36419	75.71	-1
0	36467	75.81	-1
0	36515	75.91	-1
0	36565	76.01	-1
0	36613	76.11	-1
0	36661	76.21	-1
0	36709	76.31	-1
0	36757	76.41	-1
0	36805	76.51	-1
0	36853	76.61	-1
0	36901	76.71	-1
0	36949	76.81	-1
0	36997	76.91	-1
0	37047	77.01	-1
0	37095	77.11	-1
0	37143	77.21	-1
0	37191	77.31	-1
0	37239	77.41	-1
0	37287	77.51	-1
0	37335	77.61	-1
0	37383	77.71	-1
0	37431	77.81	-1
0	37479	77.91	-1
0	37529	78.01	-1
0	37577	78.11	-1
0	37625	78.21	-1
0	37673	78.31	-1
0	37721	78.41	-1
0	37769	78.51	-1
0	37817	78.61	-1
0	37865	78.71	-1
0	37913	78.81	-1
0	37961	78.91	-1
0	38011	79.01	-1
0	38059	79.11	-1
0	38107	79.21	-1
0	38155	79.31	-1
0	38203	79.41	-1
0	38251	79.51	-1
0	38299	79.61	-1
0	38347	79.71	-1
0	38395	79.81	-1
0	38443	79.91	-1
0	38493	80.01	-1
0	38541	80.11	-1
0	38589	80.21	-1
0	38637	80.31	-1
0	38685	80.41	-1
0	38733	80.51	-1
0	38781	80.61	-1
0	38829	80.71	-1
0	38877	80.81	-1
0	38925	80.91	-1
0	38975	81.01	-1
0	39023	81.11	-1
0	39071	81.21	-1
0	39119	81.31	-1
0	39167	81.41	-1
0	39215	81.51	-1
0	39263	81.61	-1
0	39311	81.71	-1
0	39359	81.81	-1
0	39407	81.91	-1
0	39457	82.01	-1
0	39505	82.11	-1
0	39553	82.21	-1
0	39601	82.31	-1
0	39649	82.41	-1
0	39697	82.51	-1
0	39745	82.61	-1
0	39793	82.71	-1
0	39841	82.81	-1
0	39889	82.91	-1
0	39939	83.01	-1
0	39987	83.11	-1
0	40035	83.21	-1
0	40083	83.31	-1
0	40131	83.41	-1
0	40179	83.51	-1
0	40227	83.61	-1
0	40275	83.71	-1
0	40323	83.81	-1
0	40371	83.91	-1
0	40421	84.01	-1
0	40469	84.11	-1
0	40517	84.21	-1
0	40565	84.31	-1
0	40613	84.41	-1
0	40661	84.51	-1
0	40709	84.61	-1
0	40757	84.71	-1
0	40805	84.81	-1
0	40853	84.91	-1
0	40903	85.01	-1
0	40951	85.11	-1
0	40999	85.21	-1
0	41047	85.31	-1
0	41095	85.41	-1
0	41143	85.51	-1
0	41191	85.61	-1
0	41239	85.71	-1
0	41287	85.81	-1
0	41335	85.91	-1
0	41385	86.01	-1
0	41433	86.11	-1
0	41481	86.21	-1
0	41529	86.31	-1
0	41577	86.41	-1
0	41625	86.51	-1
0	41673	86.61	-1
0	41721	86.71	-1
0	41769	86.81	-1
0	41817	86.91	-1
0	41867	87.01	-1
0	41915	87.11	-1
0	41963	87.21	-1
0	42011	87.31	-1
0	42059	87.41	-1
0	42107	87.51	-1
0	42155	87.61	-1
0	42203	87.71	-1
0	42251	87.81	-1
0	42299	87.91	-1
0	42349	88.01	-1
0	42397	88.11	-1
0	42445	88.21	-1
0	42493	88.31	-1
0	42541	88.41	-1
0	42589	88.51	-1
0	42637	88.61	-1
0	42685	88.71	-1
0	42733	88.81	-1
0	42781	88.91	-1
0	42831	89.01	-1
0	42879	89.11	-1
0	42927	89.21	-1
0	42975	89.31	-1
0	43023	89.41	-1
0	43071	89.51	-1
0	43119	89.61	-1
0	43167	89.71	-1
0	43215	89.81	-1
0	43263	89.91	-1
0	43313	90.01	-1
0	43361	90.11	-1
0	43409	90.21	-1
0	43457	90.31	-1
0	43505	90.41	-1
0	43553	90.51	-1
0	43601	90.61	-1
0	43649	90.71	-1
0	43697	90.81	-1
0	43745	90.91	-1
0	43795	91.01	-1
0	43843	91.11	-1
0	43891	91.21	-1
0	43939	91.31	-1
0	43987	91.41	-1
0	44035	91.51	-1
0	44083	91.61	-1
0	44131	91.71	-1
0	44179	91.81	-1
0	44227	91.91	-1
0	44277	92.01	-1
0	44325	92.11	-1
0	44373	92.21	-1
0	44421	92.31	-1
0	44469	92.41	-1
0	44517	92.51	-1
0	44565	92.61	-1
0	44613	92.71	-1
0	44661	92.81	-1
0	44709	92.91	-1
0	44759	93.01	-1
0	44807	93.11	-1
0	44855	93.21	-1
0	44903	93.31	-1
0	44951	93.41	-1
0	44999	93.51	-1
0	45047	93.61	-1
0	45095	93.71	-1
0	45143	93.81	-1
0	45191	93.91	-1
0	45241	94.01	-1
0	45289	94.11	-1
0	45337	94.21	-1
0	45385	94.31	-1
0	45433	94.41	-1
0	45481	94.51	-1
0	45529	94.61	-1
0	45577	94.71	-1
0	45625	94.81	-1
0	45673	94.91	-1
0	45723	95.01	-1
0	45771	95.11	-1
0	45819	95.21	-1
0	45867	95.31	-1
0	45915	95.41	-1
0	45963	95.51	-1
0	46011	95.61	-1
0	46059	95.71	-1
0	46107	95.81	-1
0	46155	95.91	-1
0	46205	96.01	-1
0	46253	96.11	-1
0	46301	96.21	-1
0	46349	96.31	-1
0	46397	96.41	-1
0	46445	96.51	-1
0	46493	96.61	-1
0	46541	96.71	-1
0	46589	96.81	-1
0	46637	96.91	-1
0	46687	97.01	-1
0	46735	97.11	-1
0	46783	97.21	-1
0	46831	97.31	-1
0	46879	97.41	-1
0	46927	97.51	-1
0	46975	97.61	-1
0	47023	97.71	-1
0	47071	97.81	-1
0	47119	97.91	-1
0	47169	98.01	-1
0	47217	98.11	-1
0	47265	98.21	-1
0	47313	98.31	-1
0	47361	98.41	-1
0	47409	98.51	-1
0	47457	98.61	-1
0	47505	98.71	-1
0	47553	98.81	-1
0	47601	98.91	-1
0	47651	99.01	-1
0	47699	99.11	-1
0	47747	99.21	-1
0	47795	99.31	-1
0	47843	99.41	-1
0	47891	99.51	-1
0	47939	99.61	-1
0	47987	99.71	-1
0	48035	99.81	-1
0	48083	99.91	-1
1	113	1.11	0
1	161	1.21	0
1	209	1.31	0
1	257	1.41	0
1	305	1.51	0
1	353	1.61	0
1	401	1.71	0
1	449	1.81	0
1	497	1.91	0
1	547	2.01	0
1	595	2.11	0
1	643	2.21	0
1	691	2.31	0
1	739	2.41	0
1	787	2.51	0
1	835	2.61	0
1	883	2.71	0
1	931	2.81	0
1	979	2.91	0
1	1029	3.01	0
1	1077	3.11	0
1	1125	3.21	0
1	1173	3.31	0
1	1221	3.41	0
1	1269	3.51	0
1	1317	3.61	0
1	1365	3.71	0
1	1413	3.81	0
1	1461	3.91	0
1	1511	4.01	0
1	1559	4.11	0
1	1607	4.21	0
1	1655	4.31	0
1	1703	4.41	0
1	1751	4.51	0
1	1799	4.61	0
1	1847	4.71	0
1	1895	4.81	0
1	1943	4.91	0
1	1993	5.01	0
1	2041	5.11	0
1	2089	5.21	0
1	2137	5.31	0
1	2185	5.41	0
1	2233	5.51	0
1	2281	5.61	0
1	2329	5.71	0
1	2377	5.81	0
1	2425	5.91	0
1	2475	6.01	0
1	2523	6.11	0
1	2571	6.21	0
1	2619	6.31	0
1	2667	6.41	0
1	2715	6.51	0
1	2763	6.61	0
1	2811	6.71	0
1	2859	6.81	0
1	2907	6.91	0
1	2957	7.01	0
1	3005	7.11	0
1	3053	7.21	0
1	3101	7.31	0
1	3149	7.41	0
1	3197	7.51	0
1	3245	7.61	0
1	3293	7.71	0
1	3341	7.81	0
1	3389	7.91	0
1	3439	8.01	0
1	3487	8.11	0
1	3535	8.21	0
1	3583	8.31	0
1	3631	8.41	0
1	3679	8.51	0
1	3727	8.61	0
1	3775	8.71	0
1	3823	8.81	0
1	3871	8.91	0
1	3921	9.01	0
1	3969	9.11	0
1	4017	9.21	0
1	4065	9.31	0
1	4113	9.41	0
1	4161	9.51	0
1	4209	9.61	0
1	4257	9.71	0
1	4305	9.81	0
1	4353	9.91	0
1	4423	10.01	0
1	4472	10.11	0
1	4521	10.21	0
1	4570	10.31	0
1	4619	10.41	0
1	4668	10.51	0
1	4717	10.61	0
1	4766	10.71	0
1	4815	10.81	0
1	4864	10.91	0
1	4915	11.01	0
1	4964	11.11	0
1	5013	11.21	0
1	5062	11.31	0
1	5111	11.41	0
1	5160	11.51	0
1	5209	11.61	0
1	5258	11.71	0
1	5307	11.81	0
1	5356	11.91	0
1	5407	12.01	0
1	5456	12.11	0
1	5505	12.21	0
1	5554	12.31	0
1	5603	12.41	0
1	5652	12.51	0
1	5701	12.61	0
1	5750	12.71	0
1	5799	12.81	0
1	5848	12.91	0
1	5899	13.01	0
1	5948	13.11	0
1	5997	13.21	0
1	6046	13.31	0
1	6095	13.41	0
1	6144	13.51	0
1	6193	13.61	0
1	6242	13.71	0
1	6291	13.81	0
1	6340	13.91	0
1	6391	14.01	0
1	6440	14.11	0
1	6489	14.21	0
1	6538	14.31	0
1	6587	14.41	0
1	6636	14.51	0
1	6685	14.61	0
1	6734	14.71	0
1	6783	14.81	0
1	6832	14.91	0
1	6883	15.01	0
1	6932	15.11	0
1	6981	15.21	0
1	7030	15.31	0
1	7079	15.41	0
1	7128	15.51	0
1	7177	15.61	0
1	7226	15.71	0
1	7275	15.81	0
1	7324	15.91	0
1	7375	16.01	0
1	7424	16.11	0
1	7473	16.21	0
1	7522	16.31	0
1	7571	16.41	0
1	7620	16.51	0
1	7669	16.61	0
1	7718	16.71	0
1	7767	16.81	0
1	7816	16.91	0
1	7867	17.01	0
1	7916	17.11	0
1	7965	17.21	0
1	8014	17.31	0
1	8063	17.41	0
1	8112	17.51	0
1	8161	17.61	0
1	8210	17.71	0
1	8259	17.81	0
1	8308	17.91	0
1	8359	18.01	0
1	8408	18.11	0
1	8457	18.21	0
1	8506	18.31	0
1	8555	18.41	0
1	8604	18.51	0
1	8653	18.61	0
1	8702	18.71	0
1	8751	18.81	0
1	8800	18.91	0
1	8851	19.01	0
1	8900	19.11	0
1	8949	19.21	0
1	8998	19.31	0
1	9047	19.41	0
1	9096	19.51	0
1	9145	19.61	0
1	9194	19.71	0
1	9243	19.81	0
1	9292	19.91	0
1	9343	20.01	0
1	9392	20.11	0
1	9441	20.21	0
1	9490	20.31	0
1	9539	20.41	0
1	9588	20.51	0
1	9637	20.61	0
1	9686	20.71	0
1	9735	20.81	0
1	9784	20.91	0
1	9835	21.01	0
1	9884	21.11	0
1	9933	21.21	0
1	9982	21.31	0
1	10031	21.41	0
1	10080	21.51	0
1	10129	21.61	0
1	10178	21.71	0
1	10227	21.81	0
1	10276	21.91	0
1	10327	22.01	0
1	10376	22.11	0
1	10425	22.21	0
1	10474	22.31	0
1	10523	22.41	0
1	10572	22.51	0
1	10621	22.61	0
1	10670	22.71	0
1	10719	22.81	0
1	10768	22.91	0
1	10819	23.01	0
1	10868	23.11	0
1	10917	23.21	0
1	10966	23.31	0
1	11015	23.41	0
1	11064	23.51	0
1	11113	23.61	0
1	11162	23.71	0
1	11211	23.81	0
1	11260	23.91	0
1	11311	24.01	0
1	11360	24.11	0
1	11409	24.21	0
1	11458	24.31	0
1	11507	24.41	0
1	11556	24.51	0
1	11605	24.61	0
1	11654	24.71	0
1	11703	24.81	0
1	11752	24.91	0
1	11803	25.01	0
1	11852	25.11	0
1	11901	25.21	0
1	11950	25.31	0
1	11999	25.41	0
1	12048	25.51	0
1	12097	25.61	0
1	12146	25.71	0
1	12195	25.81	0
1	12244	25.91	0
1	12295	26.01	0
1	12344	26.11	0
1	12393	26.21	0
1	12442	26.31	0
1	12491	26.41	0
1	12540	26.51	0
1	12589	26.61	0
1	12638	26.71	0
1	12687	26.81	0
1	12736	26.91	0
1	12787	27.01	0
1	12836	27.11	0
1	12885	27.21	0
1	12934	27.31	0
1	12983	27.41	0
1	13032	27.51	0
1	13081	27.61	0
1	13130	27.71	0
1	13179	27.81	0
1	13228	27.91	0
1	13279	28.01	0
1	13328	28.11	0
1	13377	28.21	0
1	13426	28.31	0
1	13475	28.41	0
1	13524	28.51	0
1	13573	28.61	0
1	13622	28.71	0
1	13671	28.81	0
1	13720	28.91	0
1	13771	29.01	0
1	13820	29.11	0
1	13869	29.21	0
1	13918	29.31	0
1	13967	29.41	0
1	14016	29.51	0
1	14065	29.61	0
1	14114	29.71	0
1	14163	29.81	0
1	14212	29.91	0
1	14263	30.01	0
1	14312	30.11	0
1	14361	30.21	0
1	14410	30.31	0
1	14459	30.41	0
1	14508	30.51	0
1	14557	30.61	0
1	14606	30.71	0
1	14655	30.81	0
1	14704	30.91	0
1	14755	31.01	0
1	14804	31.11	0
1	14853	31.21	0
1	14902	31.31	0
1	14951	31.41	0
1	15000	31.51	0
1	15049	31.61	0
1	15098	31.71	0
1	15147	31.81	0
1	15196	31.91	0
1	15247	32.01	0
1	15296	32.11	0
1	15345	32.21	0
1	15394	32.31	0
1	15443	32.41	0
1	15492	32.51	0
1	15541	32.61	0
1	15590	32.71	0
1	15639	32.81	0
1	15688	32.91	0
1	15739	33.01	0
1	15788	33.11	0
1	15837	33.21	0
1	15886	33.31	0
1	15935	33.41	0
1	15984	33.51	0
1	16033	33.61	0
1	16082	33.71	0
1	16131	33.81	0
1	16180	33.91	0
1	16231	34.01	0
1	16280	34.11	0
1	16329	34.21	0
1	16378	34.31	0
1	16427	34.41	0
1	16476	34.51	0
1	16525	34.61	0
1	16574	34.71	0
1	16623	34.81	0
1	16672	34.91	0
1	16723	35.01	0
1	16772	35.11	0
1	16821	35.21	0
1	16870	35.31	0
1	16919	35.41	0
1	16968	35.51	0
1	17017	35.61	0
1	17066	35.71	0
1	17115	35.81	0
1	17164	35.91	0
1	17215	36.01	0
1	17264	36.11	0
1	17313	36.21	0
1	17362	36.31	0
1	17477	36.41	0
1	17525	36.51	0
1	17573	36.61	0
1	17621	36.71	0
1	17669	36.81	0
1	17717	36.91	0
1	17767	37.01	0
1	17815	37.11	0
1	17863	37.21	0
1	17911	37.31	0
1	17959	37.41	0
1	18007	37.51	0
1	18055	37.61	0
1	18103	37.71	0
1	18151	37.81	0
1	18199	37.91	0
1	18249	38.01	0
1	18297	38.11	0
1	18345	38.21	0
1	18393	38.31	0
1	18441	38.41	0
1	18489	38.51	0
1	18537	38.61	0
1	18585	38.71	0
1	18633	38.81	0
1	18681	38.91	0
1	18731	39.01	0
1	18779	39.11	0
1	18827	39.21	0
1	18875	39.31	0
1	18923	39.41	0
1	18971	39.51	0
1	19019	39.61	0
1	19067	39.71	0
1	19115	39.81	0
1	19163	39.91	0
1	19213	40.01	0
1	19261	40.11	0
1	19309	40.21	0
1	19357	40.31	0
1	19405	40.41	0
1	19453	40.51	0
1	19501	40.61	0
1	19549	40.71	0
1	19597	40.81	0
1	19645	40.91	0
1	19695	41.01	0
1	19743	41.11	0
1	19791	41.21	0
1	19839	41.31	0
1	19887	41.41	0
1	19935	41.51	0
1	19983	41.61	0
1	20031	41.71	0
1	20079	41.81	0
1	20127	41.91	0
1	20177	42.01	0
1	20225	42.11	0
1	20273	42.21	0
1	20321	42.31	0
1	20369	42.41	0
1	20417	42.51	0
1	20465	42.61	0
1	20513	42.71	0
1	20561	42.81	0
1	20609	42.91	0
1	20659	43.01	0
1	20707	43.11	0
1	20755	43.21	0
1	20803	43.31	0
1	20851	43.41	0
1	20899	43.51	0
1	20947	43.61	0
1	20995	43.71	0
1	21043	43.81	0
1	21091	43.91	0
1	21141	44.01	0
1	21189	44.11	0
1	21237	44.21	0
1	21285	44.31	0
1	21333	44.41	0
1	21381	44.51	0
1	21429	44.61	0
1	21477	44.71	0
1	21525	44.81	0
1	21573	44.91	0
1	21623	45.01	0
1	21671	45.11	0
1	21719	45.21	0
1	21767	45.31	0
1	21815	45.41	0
1	21863	45.51	0
1	21911	45.61	0
1	21959	45.71	0
1	22007	45.81	0
1	22055	45.91	0
1	22105	46.01	0
1	22153	46.11	0
1	22201	46.21	0
1	22249	46.31	0
1	22297	46.41	0
1	22345	46.51	0
1	22393	46.61	0
1	22441	46.71	0
1	22489	46.81	0
1	22537	46.91	0
1	22587	47.01	0
1	22635	47.11	0
1	22683	47.21	0
1	22731	47.31	0
1	22779	47.41	0
1	22827	47.51	0
1	22875	47.61	0
1	22923	47.71	0
1	22971	47.81	0
1	23019	47.91	0
1	23069	48.01	0
1	23117	48.11	0
1	23165	48.21	0
1	23213	48.31	0
1	23261	48.41	0
1	23309	48.51	0
1	23357	48.61	0
1	23405	48.71	0
1	23453	48.81	0
1	23501	48.91	0
1	23551	49.01	0
1	23599	49.11	0
1	23647	49.21	0
1	23695	49.31	0
1	23743	49.41	0
1	23791	49.51	0
1	23839	49.61	0
1	23887	49.71	0
1	23935	49.81	0
1	23983	49.91	0
1	24033	50.01	0
1	24081	50.11	0
1	24129	50.21	0
1	24177	50.31	0
1	24225	50.41	0
1	24273	50.51	0
1	24321	50.61	0
1	24369	50.71	0
1	24417	50.81	0
1	24465	50.91	0
1	24515	51.01	0
1	24563	51.11	0
1	24611	51.21	0
1	24659	51.31	0
1	24707	51.41	0
1	24755	51.51	0
1	24803	51.61	0
1	24851	51.71	0
1	24899	51.81	0
1	24947	51.91	0
1	24997	52.01	0
1	25045	52.11	0
1	25093	52.21	0
1	25141	52.31	0
1	25189	52.41	0
1	25237	52.51	0
1	25285	52.61	0
1	25333	52.71	0
1	25381	52.81	0
1	25429	52.91	0
1	25479	53.01	0
1	25527	53.11	0
1	25575	53.21	0
1	25623	53.31	0
1	25671	53.41	0
1	25719	53.51	0
1	25767	53.61	0
1	25815	53.71	0
1	25863	53.81	0
1	25911	53.91	0
1	25961	54.01	0
1	26009	54.11	0
1	26057	54.21	0
1	26105	54.31	0
1	26153	54.41	0
1	26201	54.51	0
1	26249	54.61	0
1	26297	54.71	0
1	26345	54.81	0
1	26393	54.91	0
1	26443	55.01	0
1	26491	55.11	0
1	26539	55.21	0
1	26587	55.31	0
1	26635	55.41	0
1	26683	55.51	0
1	26731	55.61	0
1	26779	55.71	0
1	26827	55.81	0
1	26875	55.91	0
1	26925	56.01	0
1	26973	56.11	0
1	27021	56.21	0
1	27069	56.31	0
1	27117	56.41	0
1	27165	56.51	0
1	27213	56.61	0
1	27261	56.71	0
1	27309	56.81	0
1	27357	56.91	0
1	27407	57.01	0
1	27455	57.11	0
1	27503	57.21	0
1	27551	57.31	0
1	27599	57.41	0
1	27647	57.51	0
1	27695	57.61	0
1	27743	57.71	0
1	27791	57.81	0
1	27839	57.91	0
1	27889	58.01	0
1	27937	58.11	0
1	27985	58.21	0
1	28033	58.31	0
1	28081	58.41	0
1	28129	58.51	0
1	28177	58.61	0
1	28225	58.71	0
1	28273	58.81	0
1	28321	58.91	0
1	28371	59.01	0
1	28419	59.11	0
1	28467	59.21	0
1	28515	59.31	0
1	28563	59.41	0
1	28611	59.51	0
1	28659	59.61	0
1	28707	59.71	0
1	28755	59.81	0
1	28803	59.91	0
1	28853	60.01	0
1	28901	60.11	0
1	28949	60.21	0
1	28997	60.31	0
1	29045	60.41	0
1	29093	60.51	0
1	29141	60.61	0
1	29189	60.71	0
1	29237	60.81	0
1	29285	60.91	0
1	29335	61.01	0
1	29383	61.11	0
1	29431	61.21	0
1	29479	61.31	0
1	29527	61.41	0
1	29575	61.51	0
1	29623	61.61	0
1	29671	61.71	0
1	29719	61.81	0
1	29767	61.91	0
1	29817	62.01	0
1	29865	62.11	0
1	29913	62.21	0
1	29961	62.31	0
1	30009	62.41	0
1	30057	62.51	0
1	30105	62.61	0
1	30153	62.71	0
1	30201	62.81	0
1	30249	62.91	0
1	30299	63.01	0
1	30347	63.11	0
1	30395	63.21	0
1	30443	63.31	0
1	30491	63.41	0
1	30539	63.51	0
1	30587	63.61	0
1	30635	63.71	0
1	30683	63.81	0
1	30731	63.91	0
1	30781	64.01	0
1	30829	64.11	0
1	30877	64.21	0
1	30925	64.31	0
1	30973	64.41	0
1	31021	64.51	0
1	31069	64.61	0
1	31117	64.71	0
1	31165	64.81	0
1	31213	64.91	0
1	31263	65.01	0
1	31311	65.11	0
1	31359	65.21	0
1	31407	65.31	0
1	31455	65.41	0
1	31503	65.51	0
1	31551	65.61	0
1	31599	65.71	0
1	31647	65.81	0
1	31695	65.91	0
1	31745	66.01	0
1	31793	66.11	0
1	31841	66.21	0
1	31889	66.31	0
1	31937	66.41	0
1	31985	66.51	0
1	32033	66.61	0
1	32081	66.71	0
1	32129	66.81	0
1	32177	66.91	0
1	32227	67.01	0
1	32275	67.11	0
1	32323	67.21	0
1	32371	67.31	0
1	32419	67.41	0
1	32467	67.51	0
1	32515	67.61	0
1	32563	67.71	0
1	32611	67.81	0
1	32659	67.91	0
1	32709	68.01	0
1	32757	68.11	0
1	32805	68.21	0
1	32853	68.31	0
1	32901	68.41	0
1	32949	68.51	0
1	32997	68.61	0
1	33045	68.71	0
1	33093	68.81	0
1	33141	68.91	0
1	33191	69.01	0
1	33239	69.11	0
1	33287	69.21	0
1	33335	69.31	0
1	33383	69.41	0
1	33431	69.51	0
1	33479	69.61	0
1	33527	69.71	0
1	33575	69.81	0
1	33623	69.91	0
1	33673	70.01	0
1	33721	70.11	0
1	33769	70.21	0
1	33817	70.31	0
1	33865	70.41	0
1	33913	70.51	0
1	33961	70.61	0
1	34009	70.71	0
1	34057	70.81	0
1	34105	70.91	0
1	34155	71.01	0
1	34203	71.11	0
1	34251	71.21	0
1	34299	71.31	0
1	34347	71.41	0
1	34395	71.51	0
1	34443	71.61	0
1	34491	71.71	0
1	34539	71.81	0
1	34587	71.91	0
1	34637	72.01	0
1	34685	72.11	0
1	34733	72.21	0
1	34781	72.31	0
1	34829	72.41	0
1	34877	72.51	0
1	34925	72.61	0
1	34973	72.71	0
1	35021	72.81	0
1	35069	72.91	0
1	35119	73.01	0
1	35167	73.11	0
1	35215	73.21	0
1	35263	73.31	0
1	35311	73.41	0
1	35359	73.51	0
1	35407	73.61	0
1	35455	73.71	0
1	35503	73.81	0
1	35551	73.91	0
1	35601	74.01	0
1	35649	74.11	0
1	35697	74.21	0
1	35745	74.31	0
1	35793	74.41	0
1	35841	74.51	0
1	35889	74.61	0
1	35937	74.71	0
1	35985	74.81	0
1	36033	74.91	0
1	36083	75.01	0
1	36131	75.11	0
1	36179	75.21	0
1	36227	75.31	0
1	36275	75.41	0
1	36323	75.51	0
1	36371	75.61	0
1	36419	75.71	0
1	36467	75.81	0
1	36515	75.91	0
1	36565	76.01	0
1	36613	76.11	0
1	36661	76.21	0
1	36709	76.31	0
1	36757	76.41	0
1	36805	76.51	0
1	36853	76.61	0
1	36901	76.71	0
1	36949	76.81	0
1	36997	76.91	0
1	37047	77.01	0
1	37095	77.11	0
1	37143	77.21	0
1	37191	77.31	0
1	37239	77.41	0
1	37287	77.51	0
1	37335	77.61	0
1	37383	77.71	0
1	37431	77.81	0
1	37479	77.91	0
1	37529	78.01	0
1	37577	78.11	0
1	37625	78.21	0
1	37673	78.31	0
1	37721	78.41	0
1	37769	78.51	0
1	37817	78.61	0
1	37865	78.71	0
1	37913	78.81	0
1	37961	78.91	0
1	38011	79.01	0
1	38059	79.11	0
1	38107	79.21	0
1	38155	79.31	0
1	38203	79.41	0
1	38251	79.51	0
1	38299	79.61	0
1	38347	79.71	0
1	38395	79.81	0
1	38443	79.91	0
1	38493	80.01	0
1	38541	80.11	0
1	38589	80.21	0
1	38637	80.31	0
1	38685	80.41	0
1	38733	80.51	0
1	38781	80.61	0
1	38829	80.71	0
1	38877	80.81	0
1	38925	80.91	0
1	38975	81.01	0
1	39023	81.11	0
1	39071	81.21	0
1	39119	81.31	0
1	39167	81.41	0
1	39215	81.51	0
1	39263	81.61	0
1	39311	81.71	0
1	39359	81.81	0
1	39407	81.91	0
1	39457	82.01	0
1	39505	82.11	0
1	39553	82.21	0
1	39601	82.31	0
1	39649	82.41	0
1	39697	82.51	0
1	39745	82.61	0
1	39793	82.71	0
1	39841	82.81	0
1	39889	82.91	0
1	39939	83.01	0
1	39987	83.11	0
1	40035	83.21	0
1	40083	83.31	0
1	40131	83.41	0
1	40179	83.51	0
1	40227	83.61	0
1	40275	83.71	0
1	40323	83.81	0
1	40371	83.91	0
1	40421	84.01	0
1	40469	84.11	0
1	40517	84.21	0
1	40565	84.31	0
1	40613	84.41	0
1	40661	84.51	0
1	40709	84.61	0
1	40757	84.71	0
1	40805	84.81	0
1	40853	84.91	0
1	40903	85.01	0
1	40951	85.11	0
1	40999	85.21	0
1	41047	85.31	0
1	41095	85.41	0
1	41143	85.51	0
1	41191	85.61	0
1	41239	85.71	0
1	41287	85.81	0
1	41335	85.91	0
1	41385	86.01	0
1	41433	86.11	0
1	41481	86.21	0
1	41529	86.31	0
1	41577	86.41	0
1	41625	86.51	0
1	41673	86.61	0
1	41721	86.71	0
1	41769	86.81	0
1	41817	86.91	0
1	41867	87.01	0
1	41915	87.11	0
1	41963	87.21	0
1	42011	87.31	0
1	42059	87.41	0
1	42107	87.51	0
1	42155	87.61	0
1	42203	87.71	0
1	42251	87.81	0
1	42299	87.91	0
1	42349	88.01	0
1	42397	88.11	0
1	42445	88.21	0
1	42493	88.31	0
1	42541	88.41	0
1	42589	88.51	0
1	42637	88.61	0
1	42685	88.71	0
1	42733	88.81	0
1	42781	88.91	0
1	42831	89.01	0
1	42879	89.11	0
1	42927	89.21	0
1	42975	89.31	0
1	43023	89.41	0
1	43071	89.51	0
1	43119	89.61	0
1	43167	89.71	0
1	43215	89.81	0
1	43263	89.91	0
1	43313	90.01	0
1	43361	90.11	0
1	43409	90.21	0
1	43457	90.31	0
1	43505	90.41	0
1	43553	90.51	0
1	43601	90.61	0
1	43649	90.71	0
1	43697	90.81	0
1	43745	90.91	0
1	43795	91.01	0
1	43843	91.11	0
1	43891	91.21	0
1	43939	91.31	0
1	43987	91.41	0
1	44035	91.51	0
1	44083	91.61	0
1	44131	91.71	0
1	44179	91.81	0
1	44227	91.91	0
1	44277	92.01	0
1	44325	92.11	0
1	44373	92.21	0
1	44421	92.31	0
1	44469	92.41	0
1	44517	92.51	0
1	44565	92.61	0
1	44613	92.71	0
1	44661	92.81	0
1	44709	92.91	0
1	44759	93.01	0
1	44807	93.11	0
1	44855	93.21	0
1	44903	93.31	0
1	44951	93.41	0
1	44999	93.51	0
1	45047	93.61	0
1	45095	93.71	0
1	45143	93.81	0
1	45191	93.91	0
1	45241	94.01	0
1	45289	94.11	0
1	45337	94.21	0
1	45385	94.31	0
1	45433	94.41	0
1	45481	94.51	0
1	45529	94.61	0
1	45577	94.71	0
1	45625	94.81	0
1	45673	94.91	0
1	45723	95.01	0
1	45771	95.11	0
1	45819	95.21	0
1	45867	95.31	0
1	45915	95.41	0
1	45963	95.51	0
1	46011	95.61	0
1	46059	95.71	0
1	46107	95.81	0
1	46155	95.91	0
1	46205	96.01	0
1	46253	96.11	0
1	46301	96.21	0
1	46349	96.31	0
1	46397	96.41	0
1	46445	96.51	0
1	46493	96.61	0
1	46541	96.71	0
1	46589	96.81	0
1	46637	96.91	0
1	46687	97.01	0
1	46735	97.11	0
1	46783	97.21	0
1	46831	97.31	0
1	46879	97.41	0
1	46927	97.51	0
1	46975	97.61	0
1	47023	97.71	0
1	47071	97.81	0
1	47119	97.91	0
1	47169	98.01	0
1	47217	98.11	0
1	47265	98.21	0
1	47313	98.31	0
1	47361	98.41	0
1	47409	98.51	0
1	47457	98.61	0
1	47505	98.71	0
1	47553	98.81	0
1	47601	98.91	0
1	47651	99.01	0
1	47699	99.11	0
1	47747	99.21	0
1	47795	99.31	0
1	47843	99.41	0
1	47891	99.51	0
1	47939	99.61	0
1	47987	99.71	0
1	48035	99.81	0
1	48083	99.91	0
2	113	1.11	0
2	161	1.21	0
2	209	1.31	0
2	257	1.41	0
2	305	1.51	0
2	353	1.61	0
2	401	1.71	0
2	449	1.81	0
2	497	1.91	0
2	547	2.01	0
2	595	2.11	0
2	643	2.21	0
2	691	2.31	0
2	739	2.41	0
2	787	2.51	0
2	835	2.61	0
2	883	2.71	0
2	931	2.81	0
2	979	2.91	0
2	1029	3.01	0
2	1077	3.11	0
2	1125	3.21	0
2	1173	3.31	0
2	1221	3.41	0
2	1269	3.51	0
2	1317	3.61	0
2	1365	3.71	0
2	1413	3.81	0
2	1461	3.91	0
2	1511	4.01	0
2	1559	4.11	0
2	1607	4.21	0
2	1655	4.31	0
2	1703	4.41	0
2	1751	4.51	0
2	1799	4.61	0
2	1847	4.71	0
2	1895	4.81	0
2	1943	4.91	0
2	1993	5.01	0
2	2041	5.11	0
2	2089	5.21	0
2	2137	5.31	0
2	2185	5.41	0
2	2233	5.51	0
2	2281	5.61	0
2	2329	5.71	0
2	2377	5.81	0
2	2425	5.91	0
2	2475	6.01	0
2	2523	6.11	0
2	2571	6.21	0
2	2619	6.31	0
2	2667	6.41	0
2	2715	6.51	0
2	2763	6.61	0
2	2811	6.71	0
2	2859	6.81	0
2	2907	6.91	0
2	2957	7.01	0
2	3005	7.11	0
2	3053	7.21	0
2	3101	7.31	0
2	3149	7.41	0
2	3197	7.51	0
2	3245	7.61	0
2	3293	7.71	0
2	3341	7.81	0
2	3389	7.91	0
2	3439	8.01	0
2	3487	8.11	0
2	3535	8.21	0
2	3583	8.31	0
2	3631	8.41	0
2	3679	8.51	0
2	3727	8.61	0
2	3775	8.71	0
2	3823	8.81	0
2	3871	8.91	0
2	3921	9.01	0
2	3969	9.11	0
2	4017	9.21	0
2	4065	9.31	0
2	4113	9.41	0
2	4161	9.51	0
2	4209	9.61	0
2	4257	9.71	0
2	4305	9.81	0
2	4353	9.91	0
2	4423	10.01	0
2	4472	10.11	0
2	4521	10.21	0
2	4570	10.31	0
2	4619	10.41	0
2	4668	10.51	0
2	4717	10.61	0
2	4766	10.71	0
2	4815	10.81	0
2	4864	10.91	0
2	4915	11.01	0
2	4964	11.11	0
2	5013	11.21	0
2	5062	11.31	0
2	5111	11.41	0
2	5160	11.51	0
2	5209	11.61	0
2	5258	11.71	0
2	5307	11.81	0
2	5356	11.91	0
2	5407	12.01	0
2	5456	12.11	0
2	5505	12.21	0
2	5554	12.31	0
2	5603	12.41	0
2	5652	12.51	0
2	5701	12.61	0
2	5750	12.71	0
2	5799	12.81	0
2	5848	12.91	0
2	5899	13.01	0
2	5948	13.11	0
2	5997	13.21	0
2	6046	13.31	0
2	6095	13.41	0
2	6144	13.51	0
2	6193	13.61	0
2	6242	13.71	0
2	6291	13.81	0
2	6340	13.91	0
2	6391	14.01	0
2	6440	14.11	0
2	6489	14.21	0
2	6538	14.31	0
2	6587	14.41	0
2	6636	14.51	0
2	6685	14.61	0
2	6734	14.71	0
2	6783	14.81	0
2	6832	14.91	0
2	6883	15.01	0
2	6932	15.11	0
2	6981	15.21	0
2	7030	15.31	0
2	7079	15.41	0
2	7128	15.51	0
2	7177	15.61	0
2	7226	15.71	0
2	7275	15.81	0
2	7324	15.91	0
2	7375	16.01	0
2	7424	16.11	0
2	7473	16.21	0
2	7522	16.31	0
2	7571	16.41	0
2	7620	16.51	0
2	7669	16.61	0
2	7718	16.71	0
2	7767	16.81	0
2	7816	16.91	0
2	7867	17.01	0
2	7916	17.11	0
2	7965	17.21	0
2	8014	17.31	0
2	8063	17.41	0
2	8112	17.51	0
2	8161	17.61	0
2	8210	17.71	0
2	8259	17.81	0
2	8308	17.91	0
2	8359	18.01	0
2	8408	18.11	0
2	8457	18.21	0
2	8506	18.31	0
2	8555	18.41	0
2	8604	18.51	0
2	8653	18.61	0
2	8702	18.71	0
2	8751	18.81	0
2	8800	18.91	0
2	8851	19.01	0
2	8900	19.11	0
2	8949	19.21	0
2	8998	19.31	0
2	9047	19.41	0
2	9096	19.51	0
2	9145	19.61	0
2	9194	19.71	0
2	9243	19.81	0
2	9292	19.91	0
2	9343	20.01	0
2	9392	20.11	0
2	9441	20.21	0
2	9490	20.31	0
2	9539	20.41	0
2	9588	20.51	0
2	9637	20.61	0
2	9686	20.71	0
2	9735	20.81	0
2	9784	20.91	0
2	9835	21.01	0
2	9884	21.11	0
2	9933	21.21	0
2	9982	21.31	0
2	10031	21.41	0
2	10080	21.51	0
2	10129	21.61	0
2	10178	21.71	0
2	10227	21.81	0
2	10276	21.91	0
2	10327	22.01	0
2	10376	22.11	0
2	10425	22.21	0
2	10474	22.31	0
2	10523	22.41	0
2	10572	22.51	0
2	10621	22.61	0
2	10670	22.71	0
2	10719	22.81	0
2	10768	22.91	0
2	10819	23.01	0
2	10868	23.11	0
2	10917	23.21	0
2	10966	23.31	0
2	11015	23.41	0
2	11064	23.51	0
2	11113	23.61	0
2	11162	23.71	0
2	11211	23.81	0
2	11260	23.91	0
2	11311	24.01	0
2	11360	24.11	0
2	11409	24.21	0
2	11458	24.31	0
2	11507	24.41	0
2	11556	24.51	0
2	11605	24.61	0
2	11654	24.71	0
2	11703	24.81	0
2	11752	24.91	0
2	11803	25.01	0
2	11852	25.11	0
2	11901	25.21	0
2	11950	25.31	0
2	11999	25.41	0
2	12048	25.51	0
2	12097	25.61	0
2	12146	25.71	0
2	12195	25.81	0
2	12244	25.91	0
2	12295	26.01	0
2	12344	26.11	0
2	12393	26.21	0
2	12442	26.31	0
2	12491	26.41	0
2	12540	26.51	0
2	12589	26.61	0
2	12638	26.71	0
2	12687	26.81	0
2	12736	26.91	0
2	12787	27.01	0
2	12836	27.11	0
2	12885	27.21	0
2	12934	27.31	0
2	12983	27.41	0
2	13032	27.51	0
2	13081	27.61	0
2	13130	27.71	0
2	13179	27.81	0
2	13228	27.91	0
2	13279	28.01	0
2	13328	28.11	0
2	13377	28.21	0
2	13426	28.31	0
2	13475	28.41	0
2	13524	28.51	0
2	13573	28.61	0
2	13622	28.71	0
2	13671	28.81	0
2	13720	28.91	0
2	13771	29.01	0
2	13820	29.11	0
2	13869	29.21	0
2	13918	29.31	0
2	13967	29.41	0
2	14016	29.51	0
2	14065	29.61	0
2	14114	29.71	0
2	14163	29.81	0
2	14212	29.91	0
2	14263	30.01	0
2	14312	30.11	0
2	14361	30.21	0
2	14410	30.31	0
2	14459	30.41	0
2	14508	30.51	0
2	14557	30.61	0
2	14606	30.71	0
2	14655	30.81	0
2	14704	30.91	0
2	14755	31.01	0
2	14804	31.11	0
2	14853	31.21	0
2	14902	31.31	0
2	14951	31.41	0
2	15000	31.51	0
2	15049	31.61	0
2	15098	31.71	0
2	15147	31.81	0
2	15196	31.91	0
2	15247	32.01	0
2	15296	32.11	0
2	15345	32.21	0
2	15394	32.31	0
2	15443	32.41	0
2	15492	32.51	0
2	15541	32.61	0
2	15590	32.71	0
2	15639	32.81	0
2	15688	32.91	0
2	15739	33.01	0
2	15788	33.11	0
2	15837	33.21	0
2	15886	33.31	0
2	15935	33.41	0
2	15984	33.51	0
2	16033	33.61	0
2	16082	33.71	0
2	16131	33.81	0
2	16180	33.91	0
2	16231	34.01	0
2	16280	34.11	0
2	16329	34.21	0
2	16378	34.31	0
2	16427	34.41	0
2	16476	34.51	0
2	16525	34.61	0
2	16574	34.71	0
2	16623	34.81	0
2	16672	34.91	0
2	16723	35.01	0
2	16772	35.11	0
2	16821	35.21	0
2	16870	35.31	0
2	16919	35.41	0
2	16968	35.51	0
2	17017	35.61	0
2	17066	35.71	0
2	17115	35.81	0
2	17164	35.91	0
2	17215	36.01	0
2	17264	36.11	0
2	17313	36.21	0
2	17362	36.31	0
2	17477	36.41	0
2	17525	36.51	0
2	17573	36.61	0
2	17621	36.71	0
2	17669	36.81	0
2	17717	36.91	0
2	17767	37.01	0
2	17815	37.11	0
2	17863	37.21	0
2	17911	37.31	0
2	17959	37.41	0
2	18007	37.51	0
2	18055	37.61	0
2	18103	37.71	0
2	18151	37.81	0
2	18199	37.91	0
2	18249	38.01	0
2	18297	38.11	0
2	18345	38.21	0
2	18393	38.31	0
2	18441	38.41	0
2	18489	38.51	0
2	18537	38.61	0
2	18585	38.71	0
2	18633	38.81	0
2	18681	38.91	0
2	18731	39.01	0
2	18779	39.11	0
2	18827	39.21	0
2	18875	39.31	0
2	18923	39.41	0
2	18971	39.51	0
2	19019	39.61	0
2	19067	39.71	0
2	19115	39.81	0
2	19163	39.91	0
2	19213	40.01	0
2	19261	40.11	0
2	19309	40.21	0
2	19357	40.31	0
2	19405	40.41	0
2	19453	40.51	0
2	19501	40.61	0
2	19549	40.71	0
2	19597	40.81	0
2	19645	40.91	0
2	19695	41.01	0
2	19743	41.11	0
2	19791	41.21	0
2	19839	41.31	0
2	19887	41.41	0
2	19935	41.51	0
2	19983	41.61	0
2	20031	41.71	0
2	20079	41.81	0
2	20127	41.91	0
2	20177	42.01	0
2	20225	42.11	0
2	20273	42.21	0
2	20321	42.31	0
2	20369	42.41	0
2	20417	42.51	0
2	20465	42.61	0
2	20513	42.71	0
2	20561	42.81	0
2	20609	42.91	0
2	20659	43.01	0
2	20707	43.11	0
2	20755	43.21	0
2	20803	43.31	0
2	20851	43.41	0
2	20899	43.51	0
2	20947	43.61	0
2	20995	43.71	0
2	21043	43.81	0
2	21091	43.91	0
2	21141	44.01	0
2	21189	44.11	0
2	21237	44.21	0
2	21285	44.31	0
2	21333	44.41	0
2	21381	44.51	0
2	21429	44.61	0
2	21477	44.71	0
2	21525	44.81	0
2	21573	44.91	0
2	21623	45.01	0
2	21671	45.11	0
2	21719	45.21	0
2	21767	45.31	0
2	21815	45.41	0
2	21863	45.51	0
2	21911	45.61	0
2	21959	45.71	0
2	22007	45.81	0
2	22055	45.91	0
2	22105	46.01	0
2	22153	46.11	0
2	22201	46.21	0
2	22249	46.31	0
2	22297	46.41	0
2	22345	46.51	0
2	22393	46.61	0
2	22441	46.71	0
2	22489	46.81	0
2	22537	46.91	0
2	22587	47.01	0
2	22635	47.11	0
2	22683	47.21	0
2	22731	47.31	0
2	22779	47.41	0
2	22827	47.51	0
2	22875	47.61	0
2	22923	47.71	0
2	22971	47.81	0
2	23019	47.91	0
2	23069	48.01	0
2	23117	48.11	0
2	23165	48.21	0
2	23213	48.31	0
2	23261	48.41	0
2	23309	48.51	0
2	23357	48.61	0
2	23405	48.71	0
2	23453	48.81	0
2	23501	48.91	0
2	23551	49.01	0
2	23599	49.11	0
2	23647	49.21	0
2	23695	49.31	0
2	23743	49.41	0
2	23791	49.51	0
2	23839	49.61	0
2	23887	49.71	0
2	23935	49.81	0
2	23983	49.91	0
2	24033	50.01	0
2	24081	50.11	0
2	24129	50.21	0
2	24177	50.31	0
2	24225	50.41	0
2	24273	50.51	0
2	24321	50.61	0
2	24369	50.71	0
2	24417	50.81	0
2	24465	50.91	0
2	24515	51.01	0
2	24563	51.11	0
2	24611	51.21	0
2	24659	51.31	0
2	24707	51.41	0
2	24755	51.51	0
2	24803	51.61	0
2	24851	51.71	0
2	24899	51.81	0
2	24947	51.91	0
2	24997	52.01	0
2	25045	52.11	0
2	25093	52.21	0
2	25141	52.31	0
2	25189	52.41	0
2	25237	52.51	0
2	25285	52.61	0
2	25333	52.71	0
2	25381	52.81	0
2	25429	52.91	0
2	25479	53.01	0
2	25527	53.11	0
2	25575	53.21	0
2	25623	53.31	0
2	25671	53.41	0
2	25719	53.51	0
2	25767	53.61	0
2	25815	53.71	0
2	25863	53.81	0
2	25911	53.91	0
2	25961	54.01	0
2	26009	54.11	0
2	26057	54.21	0
2	26105	54.31	0
2	26153	54.41	0
2	26201	54.51	0
2	26249	54.61	0
2	26297	54.71	0
2	26345	54.81	0
2	26393	54.91	0
2	26443	55.01	0
2	26491	55.11	0
2	26539	55.21	0
2	26587	55.31	0
2	26635	55.41	0
2	26683	55.51	0
2	26731	55.61	0
2	26779	55.71	0
2	26827	55.81	0
2	26875	55.91	0
2	26925	56.01	0
2	26973	56.11	0
2	27021	56.21	0
2	27069	56.31	0
2	27117	56.41	0
2	27165	56.51	0
2	27213	56.61	0
2	27261	56.71	0
2	27309	56.81	0
2	27357	56.91	0
2	27407	57.01	0
2	27455	57.11	0
2	27503	57.21	0
2	27551	57.31	0
2	27599	57.41	0
2	27647	57.51	0
2	27695	57.61	0
2	27743	57.71	0
2	27791	57.81	0
2	27839	57.91	0
2	27889	58.01	0
2	27937	58.11	0
2	27985	58.21	0
2	28033	58.31	0
2	28081	58.41	0
2	28129	58.51	0
2	28177	58.61	0
2	28225	58.71	0
2	28273	58.81	0
2	28321	58.91	0
2	28371	59.01	0
2	28419	59.11	0
2	28467	59.21	0
2	28515	59.31	0
2	28563	59.41	0
2	28611	59.51	0
2	28659	59.61	0
2	28707	59.71	0
2	28755	59.81	0
2	28803	59.91	0
2	28853	60.01	0
2	28901	60.11	0
2	28949	60.21	0
2	28997	60.31	0
2	29045	60.41	0
2	29093	60.51	0
2	29141	60.61	0
2	29189	60.71	0
2	29237	60.81	0
2	29285	60.91	0
2	29335	61.01	0
2	29383	61.11	0
2	29431	61.21	0
2	29479	61.31	0
2	29527	61.41	0
2	29575	61.51	0
2	29623	61.61	0
2	29671	61.71	0
2	29719	61.81	0
2	29767	61.91	0
2	29817	62.01	0
2	29865	62.11	0
2	29913	62.21	0
2	29961	62.31	0
2	30009	62.41	0
2	30057	62.51	0
2	30105	62.61	0
2	30153	62.71	0
2	30201	62.81	0
2	30249	62.91	0
2	30299	63.01	0
2	30347	63.11	0
2	30395	63.21	0
2	30443	63.31	0
2	30491	63.41	0
2	30539	63.51	0
2	30587	63.61	0
2	30635	63.71	0
2	30683	63.81	0
2	30731	63.91	0
2	30781	64.01	0
2	30829	64.11	0
2	30877	64.21	0
2	30925	64.31	0
2	30973	64.41	0
2	31021	64.51	0
2	31069	64.61	0
2	31117	64.71	0
2	31165	64.81	0
2	31213	64.91	0
2	31263	65.01	0
2	31311	65.11	0
2	31359	65.21	0
2	31407	65.31	0
2	31455	65.41	0
2	31503	65.51	0
2	31551	65.61	0
2	31599	65.71	0
2	31647	65.81	0
2	31695	65.91	0
2	31745	66.01	0
2	31793	66.11	0
2	31841	66.21	0
2	31889	66.31	0
2	31937	66.41	0
2	31985	66.51	0
2	32033	66.61	0
2	32081	66.71	0
2	32129	66.81	0
2	32177	66.91	0
2	32227	67.01	0
2	32275	67.11	0
2	32323	67.21	0
2	32371	67.31	0
2	32419	67.41	0
2	32467	67.51	0
2	32515	67.61	0
2	32563	67.71	0
2	32611	67.81	0
2	32659	67.91	0
2	32709	68.01	0
2	32757	68.11	0
2	32805	68.21	0
2	32853	68.31	0
2	32901	68.41	0
2	32949	68.51	0
2	32997	68.61	0
2	33045	68.71	0
2	33093	68.81	0
2	33141	68.91	0
2	33191	69.01	0
2	33239	69.11	0
2	33287	69.21	0
2	33335	69.31	0
2	33383	69.41	0
2	33431	69.51	0
2	33479	69.61	0
2	33527	69.71	0
2	33575	69.81	0
2	33623	69.91	0
2	33673	70.01	0
2	33721	70.11	0
2	33769	70.21	0
2	33817	70.31	0
2	33865	70.41	0
2	33913	70.51	0
2	33961	70.61	0
2	34009	70.71	0
2	34057	70.81	0
2	34105	70.91	0
2	34155	71.01	0
2	34203	71.11	0
2	34251	71.21	0
2	34299	71.31	0
2	34347	71.41	0
2	34395	71.51	0
2	34443	71.61	0
2	34491	71.71	0
2	34539	71.81	0
2	34587	71.91	0
2	34637	72.01	0
2	34685	72.11	0
2	34733	72.21	0
2	34781	72.31	0
2	34829	72.41	0
2	34877	72.51	0
2	34925	72.61	0
2	34973	72.71	0
2	35021	72.81	0
2	35069	72.91	0
2	35119	73.01	0
2	35167	73.11	0
2	35215	73.21	0
2	35263	73.31	0
2	35311	73.41	0
2	35359	73.51	0
2	35407	73.61	0
2	35455	73.71	0
2	35503	73.81	0
2	35551	73.91	0
2	35601	74.01	0
2	35649	74.11	0
2	35697	74.21	0
2	35745	74.31	0
2	35793	74.41	0
2	35841	74.51	0
2	35889	74.61	0
2	35937	74.71	0
2	35985	74.81	0
2	36033	74.91	0
2	36083	75.01	0
2	36131	75.11	0
2	36179	75.21	0
2	36227	75.31	0
2	36275	75.41	0
2	36323	75.51	0
2	36371	75.61	0
2	36419	75.71	0
2	36467	75.81	0
2	36515	75.91	0
2	36565	76.01	0
2	36613	76.11	0
2	36661	76.21	0
2	36709	76.31	0
2	36757	76.41	0
2	36805	76.51	0
2	36853	76.61	0
2	36901	76.71	0
2	36949	76.81	0
2	36997	76.91	0
2	37047	77.01	0
2	37095	77.11	0
2	37143	77.21	0
2	37191	77.31	0
2	37239	77.41	0
2	37287	77.51	0
2	37335	77.61	0
2	37383	77.71	0
2	37431	77.81	0
2	37479	77.91	0
2	37529	78.01	0
2	37577	78.11	0
2	37625	78.21	0
2	37673	78.31	0
2	37721	78.41	0
2	37769	78.51	0
2	37817	78.61	0
2	37865	78.71	0
2	37913	78.81	0
2	37961	78.91	0
2	38011	79.01	0
2	38059	79.11	0
2	38107	79.21	0
2	38155	79.31	0
2	38203	79.41	0
2	38251	79.51	0
2	38299	79.61	0
2	38347	79.71	0
2	38395	79.81	0
2	38443	79.91	0
2	38493	80.01	0
2	38541	80.11	0
2	38589	80.21	0
2	38637	80.31	0
2	38685	80.41	0
2	38733	80.51	0
2	38781	80.61	0
2	38829	80.71	0
2	38877	80.81	0
2	38925	80.91	0
2	38975	81.01	0
2	39023	81.11	0
2	39071	81.21	0
2	39119	81.31	0
2	39167	81.41	0
2	39215	81.51	0
2	39263	81.61	0
2	39311	81.71	0
2	39359	81.81	0
2	39407	81.91	0
2	39457	82.01	0
2	39505	82.11	0
2	39553	82.21	0
2	39601	82.31	0
2	39649	82.41	0
2	39697	82.51	0
2	39745	82.61	0
2	39793	82.71	0
2	39841	82.81	0
2	39889	82.91	0
2	39939	83.01	0
2	39987	83.11	0
2	40035	83.21	0
2	40083	83.31	0
2	40131	83.41	0
2	40179	83.51	0
2	40227	83.61	0
2	40275	83.71	0
2	40323	83.81	0
2	40371	83.91	0
2	40421	84.01	0
2	40469	84.11	0
2	40517	84.21	0
2	40565	84.31	0
2	40613	84.41	0
2	40661	84.51	0
2	40709	84.61	0
2	40757	84.71	0
2	40805	84.81	0
2	40853	84.91	0
2	40903	85.01	0
2	40951	85.11	0
2	40999	85.21	0
2	41047	85.31	0
2	41095	85.41	0
2	41143	85.51	0
2	41191	85.61	0
2	41239	85.71	0
2	41287	85.81	0
2	41335	85.91	0
2	41385	86.01	0
2	41433	86.11	0
2	41481	86.21	0
2	41529	86.31	0
2	41577	86.41	0
2	41625	86.51	0
2	41673	86.61	0
2	41721	86.71	0
2	41769	86.81	0
2	41817	86.91	0
2	41867	87.01	0
2	41915	87.11	0
2	41963	87.21	0
2	42011	87.31	0
2	42059	87.41	0
2	42107	87.51	0
2	42155	87.61	0
2	42203	87.71	0
2	42251	87.81	0
2	42299	87.91	0
2	42349	88.01	0
2	42397	88.11	0
2	42445	88.21	0
2	42493	88.31	0
2	42541	88.41	0
2	42589	88.51	0
2	42637	88.61	0
2	42685	88.71	0
2	42733	88.81	0
2	42781	88.91	0
2	42831	89.01	0
2	42879	89.11	0
2	42927	89.21	0
2	42975	89.31	0
2	43023	89.41	0
2	43071	89.51	0
2	43119	89.61	0
2	43167	89.71	0
2	43215	89.81	0
2	43263	89.91	0
2	43313	90.01	0
2	43361	90.11	0
2	43409	90.21	0
2	43457	90.31	0
2	43505	90.41	0
2	43553	90.51	0
2	43601	90.61	0
2	43649	90.71	0
2	43697	90.81	0
2	43745	90.91	0
2	43795	91.01	0
2	43843	91.11	0
2	43891	91.21	0
2	43939	91.31	0
2	43987	91.41	0
2	44035	91.51	0
2	44083	91.61	0
2	44131	91.71	0
2	44179	91.81	0
2	44227	91.91	0
2	44277	92.01	0
2	44325	92.11	0
2	44373	92.21	0
2	44421	92.31	0
2	44469	92.41	0
2	44517	92.51	0
2	44565	92.61	0
2	44613	92.71	0
2	44661	92.81	0
2	44709	92.91	0
2	44759	93.01	0
2	44807	93.11	0
2	44855	93.21	0
2	44903	93.31	0
2	44951	93.41	0
2	44999	93.51	0
2	45047	93.61	0
2	45095	93.71	0
2	45143	93.81	0
2	45191	93.91	0
2	45241	94.01	0
2	45289	94.11	0
2	45337	94.21	0
2	45385	94.31	0
2	45433	94.41	0
2	45481	94.51	0
2	45529	94.61	0
2	45577	94.71	0
2	45625	94.81	0
2	45673	94.91	0
2	45723	95.01	0
2	45771	95.11	0
2	45819	95.21	0
2	45867	95.31	0
2	45915	95.41	0
2	45963	95.51	0
2	46011	95.61	0
2	46059	95.71	0
2	46107	95.81	0
2	46155	95.91	0
2	46205	96.01	0
2	46253	96.11	0
2	46301	96.21	0
2	46349	96.31	0
2	46397	96.41	0
2	46445	96.51	0
2	46493	96.61	0
2	46541	96.71	0
2	46589	96.81	0
2	46637	96.91	0
2	46687	97.01	0
2	46735	97.11	0
2	46783	97.21	0
2	46831	97.31	0
2	46879	97.41	0
2	46927	97.51	0
2	46975	97.61	0
2	47023	97.71	0
2	47071	97.81	0
2	47119	97.91	0
2	47169	98.01	0
2	47217	98.11	0
2	47265	98.21	0
2	47313	98.31	0
2	47361	98.41	0
2	47409	98.51	0
2	47457	98.61	0
2	47505	98.71	0
2	47553	98.81	0
2	47601	98.91	0
2	47651	99.01	0
2	47699	99.11	0
2	47747	99.21	0
2	47795	99.31	0
2	47843	99.41	0
2	47891	99.51	0
2	47939	99.61	0
2	47987	99.71	0
2	48035	99.81	0
2	48083	99.91	0
3	113	1.11	-0.000716383
3	161	1.21	-0.00136341
3	209	1.31	-0.00186974
3	257	1.41	-0.00225157
3	305	1.51	-0.00252443
3	353	1.61	-0.00270298
3	401	1.71	-0.00280098
3	449	1.81	-0.00283113
3	497	1.91	-0.00280509
3	547	2.01	-0.00273342
3	595	2.11	-0.00262559
3	643	2.21	-0.00249005
3	691	2.31	-0.00233419
3	739	2.41	-0.00216447
3	787	2.51	-0.00198642
3	835	2.61	-0.00180472
3	883	2.71	-0.0016233
3	931	2.81	-0.00144536
3	979	2.91	-0.00127346
3	1029	3.01	-0.0011096
3	1077	3.11	-0.000955278
3	1125	3.21	-0.000811546
3	1173	3.31	-0.00067908
3	1221	3.41	-0.000558232
3	1269	3.51	-0.000449082
3	1317	3.61	-0.000351487
3	1365	3.71	-0.00026512
3	1413	3.81	-0.000189514
3	1461	3.91	-0.000124092
3	1511	4.01	-6.81972e-05
3	1559	4.11	-2.11209e-05
3	1607	4.21	1.78769e-05
3	1655	4.31	4.9548e-05
3	1703	4.41	7.46407e-05
3	1751	4.51	9.38867e-05
3	1799	4.61	0.000107991
3	1847	4.71	0.000117625
3	1895	4.81	0.000123418
3	1943	4.91	0.000125957
3	1993	5.01	0.000125781
3	2041	5.11	0.00012338
3	2089	5.21	0.000119198
3	2137	5.31	0.000113629
3	2185	5.41	0.000107022
3	2233	5.51	9.96832e-05
3	2281	5.61	9.18747e-05
3	2329	5.71	8.38211e-05
3	2377	5.81	7.57109e-05
3	2425	5.91	6.76999e-05
3	2475	6.01	5.99137e-05
3	2523	6.11	5.24518e-05
3	2571	6.21	4.53896e-05
3	2619	6.31	3.87821e-05
3	2667	6.41	3.2666e-05
3	2715	6.51	2.70628e-05
3	2763	6.61	2.19809e-05
3	2811	6.71	1.74176e-05
3	2859	6.81	1.33618e-05
3	2907	6.91	9.79494e-06
3	2957	7.01	6.6932e-06
3	3005	7.11	4.02864e-06
3	3053	7.21	1.77051e-06
3	3101	7.31	-1.13691e-07
3	3149	7.41	-1.65736e-06
3	3197	7.51	-2.89397e-06
3	3245	7.61	-3.85652e-06
3	3293	7.71	-4.57698e-06
3	3341	7.81	-5.08591e-06
3	3389	7.91	-5.41219e-06
3	3439	8.01	-5.58279e-06
3	3487	8.11	-5.6226e-06
3	3535	8.21	-5.55442e-06
3	3583	8.31	-5.39886e-06
3	3631	8.41	-5.17441e-06
3	3679	8.51	-4.89748e-06
3	3727	8.61	-4.58246e-06
3	3775	8.71	-4.24184e-06
3	3823	8.81	-3.88634e-06
3	3871	8.91	-3.52499e-06
3	3921	9.01	-3.16534e-06
3	3969	9.11	-2.81353e-06
3	4017	9.21	-2.47446e-06
3	4065	9.31	-2.15192e-06
3	4113	9.41	-1.84873e-06
3	4161	9.51	-1.56685e-06
3	4209	9.61	-1.30751e-06
3	4257	9.71	-1.0713e-06
3	4305	9.81	-8.58321e-07
3	4353	9.91	-6.68206e-07
3	4423	10.01	-5.0026e-07
3	4472	10.11	-3.53514e-07
3	4521	10.21	-2.2679e-07
3	4570	10.31	-1.18765e-07
3	4619	10.41	-2.80163e-08
3	4668	10.51	4.6931e-08
3	4717	10.61	1.07573e-07
3	4766	10.71	1.55391e-07
3	4815	10.81	1.91831e-07
3	4864	10.91	2.18284e-07
3	4915	11.01	2.3607e-07
3	4964	11.11	2.46427e-07
3	5013	11.21	2.50502e-07
3	5062	11.31	2.49353e-07
3	5111	11.41	2.43938e-07
3	5160	11.51	2.3512e-07
3	5209	11.61	2.23669e-07
3	5258	11.71	2.10264e-07
3	5307	11.81	1.95496e-07
3	5356	11.91	1.79874e-07
3	5407	12.01	1.63833e-07
3	5456	12.11	1.47736e-07
3	5505	12.21	1.3188e-07
3	5554	12.31	1.16508e-07
3	5603	12.41	1.01807e-07
3	5652	12.51	8.79222e-08
3	5701	12.61	7.49541e-08
3	5750	12.71	6.29711e-08
3	5799	12.81	5.20114e-08
3	5848	12.91	4.20883e-08
3	5899	13.01	3.3193e-08
3	5948	13.11	2.53003e-08
3	5997	13.21	1.83718e-08
3	6046	13.31	1.23581e-08
3	6095	13.41	7.20348e-09
3	6144	13.51	2.84537e-09
3	6193	13.61	-7.80886e-10
3	6242	13.71	-3.74136e-09
3	6291	13.81	-6.10285e-09
3	6340	13.91	-7.93072e-09
3	6391	14.01	-9.28821e-09
3	6440	14.11	-1.0235e-08
3	6489	14.21	-1.08283e-08
3	6538	14.31	-1.11211e-08
3	6587	14.41	-1.11612e-08
3	6636	14.51	-1.09946e-08
3	6685	14.61	-1.06599e-08
3	6734	14.71	-1.01945e-08
3	6783	14.81	-9.62999e-09
3	6832	14.91	-8.99405e-09
3	6883	15.01	-8.31086e-09
3	6932	15.11	-7.60103e-09
3	6981	15.21	-6.88338e-09
3	7030	15.31	-6.17071e-09
3	7079	15.41	-5.47544e-09
3	7128	15.51	-4.80682e-09
3	7177	15.61	-4.17266e-09
3	7226	15.71	-3.57687e-09
3	7275	15.81	-3.02443e-09
3	7324	15.91	-2.51674e-09
3	7375	16.01	-2.05489e-09
3	7424	16.11	-1.63958e-09
3	7473	16.21	-1.26903e-09
3	7522	16.31	-9.42535e-10
3	7571	16.41	-6.57963e-10
3	7620	16.51	-4.1247e-10
3	7669	16.61	-2.04636e-10
3	7718	16.71	-2.91323e-11
3	7767	16.81	1.14753e-10
3	7816	16.91	2.30926e-10
3	7867	17.01	3.22231e-10
3	7916	17.11	3.91154e-10
3	7965	17.21	4.40892e-10
3	8014	17.31	4.73577e-10
3	8063	17.41	4.92051e-10
3	8112	17.51	4.98446e-10
3	8161	17.61	4.94893e-10
3	8210	17.71	4.82814e-10
3	8259	17.81	4.6434e-10
3	8308	17.91	4.40892e-10
3	8359	18.01	4.13536e-10
3	8408	18.11	3.83693e-10
3	8457	18.21	3.51719e-10
3	8506	18.31	3.19744e-10
3	8555	18.41	2.8777e-10
3	8604	18.51	2.55795e-10
3	8653	18.61	2.25953e-10
3	8702	18.71	1.97531e-10
3	8751	18.81	1.6982e-10
3	8800	18.91	1.44951e-10
3	8851	19.01	1.21503e-10
3	8900	19.11	1.00187e-10
3	8949	19.21	8.10019e-11
3	8998	19.31	6.32383e-11
3	9047	19.41	4.86722e-11
3	9096	19.51	3.44613e-11
3	9145	19.61	2.34479e-11
3	9194	19.71	1.27898e-11
3	9243	19.81	4.9738e-12
3	9292	19.91	-2.13163e-12
3	9343	20.01	-8.17124e-12
3	9392	20.11	-1.1724e-11
3	9441	20.21	-1.52767e-11
3	9490	20.31	-1.88294e-11
3	9539	20.41	-2.02505e-11
3	9588	20.51	-2.02505e-11
3	9637	20.61	-2.02505e-11
3	9686	20.71	-2.02505e-11
3	9735	20.81	-2.02505e-11
3	9784	20.91	-2.02505e-11
3	9835	21.01	-2.02505e-11
3	9884	21.11	-2.02505e-11
3	9933	21.21	-2.02505e-11
3	9982	21.31	-1.88294e-11
3	10031	21.41	-1.7053e-11
3	10080	21.51	-1.52767e-11
3	10129	21.61	-1.38556e-11
3	10178	21.71	-1.24345e-11
3	10227	21.81	-1.13687e-11
3	10276	21.91	-1.03029e-11
3	10327	22.01	-9.23706e-12
3	10376	22.11	-8.52651e-12
3	10425	22.21	-7.4607e-12
3	10474	22.31	-6.75016e-12
3	10523	22.41	-6.03961e-12
3	10572	22.51	-5.68434e-12
3	10621	22.61	-4.9738e-12
3	10670	22.71	-4.61853e-12
3	10719	22.81	-4.26326e-12
3	10768	22.91	-3.90799e-12
3	10819	23.01	-3.55271e-12
3	10868	23.11	-3.19744e-12
3	10917	23.21	-2.84217e-12
3	10966	23.31	-2.4869e-12
3	11015	23.41	-2.13163e-12
3	11064	23.51	-2.13163e-12
3	11113	23.61	-1.77636e-12
3	11162	23.71	-1.77636e-12
3	11211	23.81	-1.42109e-12
3	11260	23.91	-1.42109e-12
3	11311	24.01	-1.06581e-12
3	11360	24.11	-1.06581e-12
3	11409	24.21	-1.06581e-12
3	11458	24.31	-1.06581e-12
3	11507	24.41	-7.10543e-13
3	11556	24.51	-7.10543e-13
3	11605	24.61	-7.10543e-13
3	11654	24.71	-7.10543e-13
3	11703	24.81	-7.10543e-13
3	11752	24.91	-3.55271e-13
3	11803	25.01	-3.55271e-13
3	11852	25.11	-3.55271e-13
3	11901	25.21	-3.55271e-13
3	11950	25.31	-3.55271e-13
3	11999	25.41	-3.55271e-13
3	12048	25.51	-3.55271e-13
3	12097	25.61	-3.55271e-13
3	12146	25.71	-3.55271e-13
3	12195	25.81	-3.55271e-13
3	12244	25.91	0
3	12295	26.01	0
3	12344	26.11	0
3	12393	26.21	0
3	12442	26.31	0
3	12491	26.41	0
3	12540	26.51	0
3	12589	26.61	0
3	12638	26.71	0
3	12687	26.81	0
3	12736	26.91	0
3	12787	27.01	0
3	12836	27.11	0
3	12885	27.21	0
3	12934	27.31	0
3	12983	27.41	0
3	13032	27.51	0
3	13081	27.61	0
3	13130	27.71	0
3	13179	27.81	0
3	13228	27.91	0
3	13279	28.01	0
3	13328	28.11	0
3	13377	28.21	0
3	13426	28.31	0
3	13475	28.41	0
3	13524	28.51	0
3	13573	28.61	0
3	13622	28.71	0
3	13671	28.81	0
3	13720	28.91	0
3	13771	29.01	0
3	13820	29.11	0
3	13869	29.21	0
3	13918	29.31	0
3	13967	29.41	0
3	14016	29.51	0
3	14065	29.61	0
3	14114	29.71	0
3	14163	29.81	0
3	14212	29.91	0
3	14263	30.01	0
3	14312	30.11	0
3	14361	30.21	0
3	14410	30.31	0
3	14459	30.41	0
3	14508	30.51	0
3	14557	30.61	0
3	14606	30.71	0
3	14655	30.81	0
3	14704	30.91	0
3	14755	31.01	0
3	14804	31.11	0
3	14853	31.21	0
3	14902	31.31	0
3	14951	31.41	0
3	15000	31.51	0
3	15049	31.61	0
3	15098	31.71	0
3	15147	31.81	0
3	15196	31.91	0
3	15247	32.01	0
3	15296	32.11	0
3	15345	32.21	0
3	15394	32.31	0
3	15443	32.41	0
3	15492	32.51	0
3	15541	32.61	0
3	15590	32.71	0
3	15639	32.81	0
3	15688	32.91	0
3	15739	33.01	0
3	15788	33.11	0
3	15837	33.21	0
3	15886	33.31	0
3	15935	33.41	0
3	15984	33.51	0
3	16033	33.61	0
3	16082	33.71	0
3	16131	33.81	0
3	16180	33.91	0
3	16231	34.01	0
3	16280	34.11	0
3	16329	34.21	0
3	16378	34.31	0
3	16427	34.41	0
3	16476	34.51	0
3	16525	34.61	0
3	16574	34.71	0
3	16623	34.81	0
3	16672	34.91	0
3	16723	35.01	0
3	16772	35.11	0
3	16821	35.21	0
3	16870	35.31	0
3	16919	35.41	0
3	16968	35.51	0
3	17017	35.61	0
3	17066	35.71	0
3	17115	35.81	0
3	17164	35.91	0
3	17215	36.01	0
3	17264	36.11	0
3	17313	36.21	0
3	17362	36.31	0
3	17477	36.41	0
3	17525	36.51	0
3	17573	36.61	0
3	17621	36.71	0
3	17669	36.81	0
3	17717	36.91	0
3	17767	37.01	0
3	17815	37.11	0
3	17863	37.21	0
3	17911	37.31	0
3	17959	37.41	0
3	18007	37.51	0
3	18055	37.61	0
3	18103	37.71	0
3	18151	37.81	0
3	18199	37.91	0
3	18249	38.01	0
3	18297	38.11	0
3	18345	38.21	0
3	18393	38.31	0
3	18441	38.41	0
3	18489	38.51	0
3	18537	38.61	0
3	18585	38.71	0
3	18633	38.81	0
3	18681	38.91	0
3	18731	39.01	0
3	18779	39.11	0
3	18827	39.21	0
3	18875	39.31	0
3	18923	39.41	0
3	18971	39.51	0
3	19019	39.61	0
3	19067	39.71	0
3	19115	39.81	0
3	19163	39.91	0
3	19213	40.01	0
3	19261	40.11	0
3	19309	40.21	0
3	19357	40.31	0
3	19405	40.41	0
3	19453	40.51	0
3	19501	40.61	0
3	19549	40.71	0
3	19597	40.81	0
3	19645	40.91	0
3	19695	41.01	0
3	19743	41.11	0
3	19791	41.21	0
3	19839	41.31	0
3	19887	41.41	0
3	19935	41.51	0
3	19983	41.61	0
3	20031	41.71	0
3	20079	41.81	0
3	20127	41.91	0
3	20177	42.01	0
3	20225	42.11	0
3	20273	42.21	0
3	20321	42.31	0
3	20369	42.41	0
3	20417	42.51	0
3	20465	42.61	0
3	20513	42.71	0
3	20561	42.81	0
3	20609	42.91	0
3	20659	43.01	0
3	20707	43.11	0
3	20755	43.21	0
3	20803	43.31	0
3	20851	43.41	0
3	20899	43.51	0
3	20947	43.61	0
3	20995	43.71	0
3	21043	43.81	0
3	21091	43.91	0
3	21141	44.01	0
3	21189	44.11	0
3	21237	44.21	0
3	21285	44.31	0
3	21333	44.41	0
3	21381	44.51	0
3	21429	44.61	0
3	21477	44.71	0
3	21525	44.81	0
3	21573	44.91	0
3	21623	45.01	0
3	21671	45.11	0
3	21719	45.21	0
3	21767	45.31	0
3	21815	45.41	0
3	21863	45.51	0
3	21911	45.61	0
3	21959	45.71	0
3	22007	45.81	0
3	22055	45.91	0
3	22105	46.01	0
3	22153	46.11	0
3	22201	46.21	0
3	22249	46.31	0
3	22297	46.41	0
3	22345	46.51	0
3	22393	46.61	0
3	22441	46.71	0
3	22489	46.81	0
3	22537	46.91	0
3	22587	47.01	0
3	22635	47.11	0
3	22683	47.21	0
3	22731	47.31	0
3	22779	47.41	0
3	22827	47.51	0
3	22875	47.61	0
3	22923	47.71	0
3	22971	47.81	0
3	23019	47.91	0
3	23069	48.01	0
3	23117	48.11	0
3	23165	48.21	0
3	23213	48.31	0
3	23261	48.41	0
3	23309	48.51	0
3	23357	48.61	0
3	23405	48.71	0
3	23453	48.81	0
3	23501	48.91	0
3	23551	49.01	0
3	23599	49.11	0
3	23647	49.21	0
3	23695	49.31	0
3	23743	49.41	0
3	23791	49.51	0
3	23839	49.61	0
3	23887	49.71	0
3	23935	49.81	0
3	23983	49.91	0
3	24033	50.01	0
3	24081	50.11	0
3	24129	50.21	0
3	24177	50.31	0
3	24225	50.41	0
3	24273	50.51	0
3	24321	50.61	0
3	24369	50.71	0
3	24417	50.81	0
3	24465	50.91	0
3	24515	51.01	0
3	24563	51.11	0
3	24611	51.21	0
3	24659	51.31	0
3	24707	51.41	0
3	24755	51.51	0
3	24803	51.61	0
3	24851	51.71	0
3	24899	51.81	0
3	24947	51.91	0
3	24997	52.01	0
3	25045	52.11	0
3	25093	52.21	0
3	25141	52.31	0
3	25189	52.41	0
3	25237	52.51	0
3	25285	52.61	0
3	25333	52.71	0
3	25381	52.81	0
3	25429	52.91	0
3	25479	53.01	0
3	25527	53.11	0
3	25575	53.21	0
3	25623	53.31	0
3	25671	53.41	0
3	25719	53.51	0
3	25767	53.61	0
3	25815	53.71	0
3	25863	53.81	0
3	25911	53.91	0
3	25961	54.01	0
3	26009	54.11	0
3	26057	54.21	0
3	26105	54.31	0
3	26153	54.41	0
3	26201	54.51	0
3	26249	54.61	0
3	26297	54.71	0
3	26345	54.81	0
3	26393	54.91	0
3	26443	55.01	0
3	26491	55.11	0
3	26539	55.21	0
3	26587	55.31	0
3	26635	55.41	0
3	26683	55.51	0
3	26731	55.61	0
3	26779	55.71	0
3	26827	55.81	0
3	26875	55.91	0
3	26925	56.01	0
3	26973	56.11	0
3	27021	56.21	0
3	27069	56.31	0
3	27117	56.41	0
3	27165	56.51	0
3	27213	56.61	0
3	27261	56.71	0
3	27309	56.81	0
3	27357	56.91	0
3	27407	57.01	0
3	27455	57.11	0
3	27503	57.21	0
3	27551	57.31	0
3	27599	57.41	0
3	27647	57.51	0
3	27695	57.61	0
3	27743	57.71	0
3	27791	57.81	0
3	27839	57.91	0
3	27889	58.01	0
3	27937	58.11	0
3	27985	58.21	0
3	28033	58.31	0
3	28081	58.41	0
3	28129	58.51	0
3	28177	58.61	0
3	28225	58.71	0
3	28273	58.81	0
3	28321	58.91	0
3	28371	59.01	0
3	28419	59.11	0
3	28467	59.21	0
3	28515	59.31	0
3	28563	59.41	0
3	28611	59.51	0
3	28659	59.61	0
3	28707	59.71	0
3	28755	59.81	0
3	28803	59.91	0
3	28853	60.01	0
3	28901	60.11	0
3	28949	60.21	0
3	28997	60.31	0
3	29045	60.41	0
3	29093	60.51	0
3	29141	60.61	0
3	29189	60.71	0
3	29237	60.81	0
3	29285	60.91	0
3	29335	61.01	0
3	29383	61.11	0
3	29431	61.21	0
3	29479	61.31	0
3	29527	61.41	0
3	29575	61.51	0
3	29623	61.61	0
3	29671	61.71	0
3	29719	61.81	0
3	29767	61.91	0
3	29817	62.01	0
3	29865	62.11	0
3	29913	62.21	0
3	29961	62.31	0
3	30009	62.41	0
3	30057	62.51	0
3	30105	62.61	0
3	30153	62.71	0
3	30201	62.81	0
3	30249	62.91	0
3	30299	63.01	0
3	30347	63.11	0
3	30395	63.21	0
3	30443	63.31	0
3	30491	63.41	0
3	30539	63.51	0
3	30587	63.61	0
3	30635	63.71	0
3	30683	63.81	0
3	30731	63.91	0
3	30781	64.01	0
3	30829	64.11	0
3	30877	64.21	0
3	30925	64.31	0
3	30973	64.41	0
3	31021	64.51	0
3	31069	64.61	0
3	31117	64.71	0
3	31165	64.81	0
3	31213	64.91	0
3	31263	65.01	0
3	31311	65.11	0
3	31359	65.21	0
3	31407	65.31	0
3	31455	65.41	0
3	31503	65.51	0
3	31551	65.61	0
3	31599	65.71	0
3	31647	65.81	0
3	31695	65.91	0
3	31745	66.01	0
3	31793	66.11	0
3	31841	66.21	0
3	31889	66.31	0
3	31937	66.41	0
3	31985	66.51	0
3	32033	66.61	0
3	32081	66.71	0
3	32129	66.81	0
3	32177	66.91	0
3	32227	67.01	0
3	32275	67.11	0
3	32323	67.21	0
3	32371	67.31	0
3	32419	67.41	0
3	32467	67.51	0
3	32515	67.61	0
3	32563	67.71	0
3	32611	67.81	0
3	32659	67.91	0
3	32709	68.01	0
3	32757	68.11	0
3	32805	68.21	0
3	32853	68.31	0
3	32901	68.41	0
3	32949	68.51	0
3	32997	68.61	0
3	33045	68.71	0
3	33093	68.81	0
3	33141	68.91	0
3	33191	69.01	0
3	33239	69.11	0
3	33287	69.21	0
3	33335	69.31	0
3	33383	69.41	0
3	33431	69.51	0
3	33479	69.61	0
3	33527	69.71	0
3	33575	69.81	0
3	33623	69.91	0
3	33673	70.01	0
3	33721	70.11	0
3	33769	70.21	0
3	33817	70.31	0
3	33865	70.41	0
3	33913	70.51	0
3	33961	70.61	0
3	34009	70.71	0
3	34057	70.81	0
3	34105	70.91	0
3	34155	71.01	0
3	34203	71.11	0
3	34251	71.21	0
3	34299	71.31	0
3	34347	71.41	0
3	34395	71.51	0
3	34443	71.61	0
3	34491	71.71	0
3	34539	71.81	0
3	34587	71.91	0
3	34637	72.01	0
3	34685	72.11	0
3	34733	72.21	0
3	34781	72.31	0
3	34829	72.41	0
3	34877	72.51	0
3	34925	72.61	0
3	34973	72.71	0
3	35021	72.81	0
3	35069	72.91	0
3	35119	73.01	0
3	35167	73.11	0
3	35215	73.21	0
3	35263	73.31	0
3	35311	73.41	0
3	35359	73.51	0
3	35407	73.61	0
3	35455	73.71	0
3	35503	73.81	0
3	35551	73.91	0
3	35601	74.01	0
3	35649	74.11	0
3	35697	74.21	0
3	35745	74.31	0
3	35793	74.41	0
3	35841	74.51	0
3	35889	74.61	0
3	35937	74.71	0
3	35985	74.81	0
3	36033	74.91	0
3	36083	75.01	0
3	36131	75.11	0
3	36179	75.21	0
3	36227	75.31	0
3	36275	75.41	0
3	36323	75.51	0
3	36371	75.61	0
3	36419	75.71	0
3	36467	75.81	0
3	36515	75.91	0
3	36565	76.01	0
3	36613	76.11	0
3	36661	76.21	0
3	36709	76.31	0
3	36757	76.41	0
3	36805	76.51	0
3	36853	76.61	0
3	36901	76.71	0
3	36949	76.81	0
3	36997	76.91	0
3	37047	77.01	0
3	37095	77.11	0
3	37143	77.21	0
3	37191	77.31	0
3	37239	77.41	0
3	37287	77.51	0
3	37335	77.61	0
3	37383	77.71	0
3	37431	77.81	0
3	37479	77.91	0
3	37529	78.01	0
3	37577	78.11	0
3	37625	78.21	0
3	37673	78.31	0
3	37721	78.41	0
3	37769	78.51	0
3	37817	78.61	0
3	37865	78.71	0
3	37913	78.81	0
3	37961	78.91	0
3	38011	79.01	0
3	38059	79.11	0
3	38107	79.21	0
3	38155	79.31	0
3	38203	79.41	0
3	38251	79.51	0
3	38299	79.61	0
3	38347	79.71	0
3	38395	79.81	0
3	38443	79.91	0
3	38493	80.01	0
3	38541	80.11	0
3	38589	80.21	0
3	38637	80.31	0
3	38685	80.41	0
3	38733	80.51	0
3	38781	80.61	0
3	38829	80.71	0
3	38877	80.81	0
3	38925	80.91	0
3	38975	81.01	0
3	39023	81.11	0
3	39071	81.21	0
3	39119	81.31	0
3	39167	81.41	0
3	39215	81.51	0
3	39263	81.61	0
3	39311	81.71	0
3	39359	81.81	0
3	39407	81.91	0
3	39457	82.01	0
3	39505	82.11	0
3	39553	82.21	0
3	39601	82.31	0
3	39649	82.41	0
3	39697	82.51	0
3	39745	82.61	0
3	39793	82.71	0
3	39841	82.81	0
3	39889	82.91	0
3	39939	83.01	0
3	39987	83.11	0
3	40035	83.21	0
3	40083	83.31	0
3	40131	83.41	0
3	40179	83.51	0
3	40227	83.61	0
3	40275	83.71	0
3	40323	83.81	0
3	40371	83.91	0
3	40421	84.01	0
3	40469	84.11	0
3	40517	84.21	0
3	40565	84.31	0
3	40613	84.41	0
3	40661	84.51	0
3	40709	84.61	0
3	40757	84.71	0
3	40805	84.81	0
3	40853	84.91	0
3	40903	85.01	0
3	40951	85.11	0
3	40999	85.21	0
3	41047	85.31	0
3	41095	85.41	0
3	41143	85.51	0
3	41191	85.61	0
3	41239	85.71	0
3	41287	85.81	0
3	41335	85.91	0
3	41385	86.01	0
3	41433	86.11	0
3	41481	86.21	0
3	41529	86.31	0
3	41577	86.41	0
3	41625	86.51	0
3	41673	86.61	0
3	41721	86.71	0
3	41769	86.81	0
3	41817	86.91	0
3	41867	87.01	0
3	41915	87.11	0
3	41963	87.21	0
3	42011	87.31	0
3	42059	87.41	0
3	42107	87.51	0
3	42155	87.61	0
3	42203	87.71	0
3	42251	87.81	0
3	42299	87.91	0
3	42349	88.01	0
3	42397	88.11	0
3	42445	88.21	0
3	42493	88.31	0
3	42541	88.41	0
3	42589	88.51	0
3	42637	88.61	0
3	42685	88.71	0
3	42733	88.81	0
3	42781	88.91	0
3	42831	89.01	0
3	42879	89.11	0
3	42927	89.21	0
3	42975	89.31	0
3	43023	89.41	0
3	43071	89.51	0
3	43119	89.61	0
3	43167	89.71	0
3	43215	89.81	0
3	43263	89.91	0
3	43313	90.01	0
3	43361	90.11	0
3	43409	90.21	0
3	43457	90.31	0
3	43505	90.41	0
3	43553	90.51	0
3	43601	90.61	0
3	43649	90.71	0
3	43697	90.81	0
3	43745	90.91	0
3	43795	91.01	0
3	43843	91.11	0
3	43891	91.21	0
3	43939	91.31	0
3	43987	91.41	0
3	44035	91.51	0
3	44083	91.61	0
3	44131	91.71	0
3	44179	91.81	0
3	44227	91.91	0
3	44277	92.01	0
3	44325	92.11	0
3	44373	92.21	0
3	44421	92.31	0
3	44469	92.41	0
3	44517	92.51	0
3	44565	92.61	0
3	44613	92.71	0
3	44661	92.81	0
3	44709	92.91	0
3	44759	93.01	0
3	44807	93.11	0
3	44855	93.21	0
3	44903	93.31	0
3	44951	93.41	0
3	44999	93.51	0
3	45047	93.61	0
3	45095	93.71	0
3	45143	93.81	0
3	45191	93.91	0
3	45241	94.01	0
3	45289	94.11	0
3	45337	94.21	0
3	45385	94.31	0
3	45433	94.41	0
3	45481	94.51	0
3	45529	94.61	0
3	45577	94.71	0
3	45625	94.81	0
3	45673	94.91	0
3	45723	95.01	0
3	45771	95.11	0
3	45819	95.21	0
3	45867	95.31	0
3	45915	95.41	0
3	45963	95.51	0
3	46011	95.61	0
3	46059	95.71	0
3	46107	95.81	0
3	46155	95.91	0
3	46205	96.01	0
3	46253	96.11	0
3	46301	96.21	0
3	46349	96.31	0
3	46397	96.41	0
3	46445	96.51	0
3	46493	96.61	0
3	46541	96.71	0
3	46589	96.81	0
3	46637	96.91	0
3	46687	97.01	0
3	46735	97.11	0
3	46783	97.21	0
3	46831	97.31	0
3	46879	97.41	0
3	46927	97.51	0
3	46975	97.61	0
3	47023	97.71	0
3	47071	97.81	0
3	47119	97.91	0
3	47169	98.01	0
3	47217	98.11	0
3	47265	98.21	0
3	47313	98.31	0
3	47361	98.41	0
3	47409	98.51	0
3	47457	98.61	0
3	47505	98.71	0
3	47553	98.81	0
3	47601	98.91	0
3	47651	99.01	0
3	47699	99.11	0
3	47747	99.21	0
3	47795	99.31	0
3	47843	99.41	0
3	47891	99.51	0
3	47939	99.61	0
3	47987	99.71	0
3	48035	99.81	0
3	48083	99.91	0
4	113	1.11	-0.00437036
4	161	1.21	-0.00426837
4	209	1.31	-0.00410815
4	257	1.41	-0.00390303
4	305	1.51	-0.00366476
4	353	1.61	-0.00340356
4	401	1.71	-0.00312825
4	449	1.81	-0.00284628
4	497	1.91	-0.00256392
4	547	2.01	-0.0022863
4	595	2.11	-0.00201755
4	643	2.21	-0.00176089
4	691	2.31	-0.00151876
4	739	2.41	-0.00129289
4	787	2.51	-0.00108441
4	835	2.61	-0.00089393
4	883	2.71	-0.000721638
4	931	2.81	-0.000567355
4	979	2.91	-0.000430614
4	1029	3.01	-0.000310715
4	1077	3.11	-0.000206783
4	1125	3.21	-0.000117814
4	1173	3.31	-4.27149e-05
4	1221	3.41	1.96584e-05
4	1269	3.51	7.04736e-05
4	1317	3.61	0.000110896
4	1365	3.71	0.000142067
4	1413	3.81	0.00016509
4	1461	3.91	0.000181016
4	1511	4.01	0.000190834
4	1559	4.11	0.000195466
4	1607	4.21	0.00019576
4	1655	4.31	0.000192489
4	1703	4.41	0.000186354
4	1751	4.51	0.000177979
4	1799	4.61	0.000167916
4	1847	4.71	0.000156649
4	1895	4.81	0.000144597
4	1943	4.91	0.000132116
4	1993	5.01	0.000119508
4	2041	5.11	0.000107021
4	2089	5.21	9.48587e-05
4	2137	5.31	8.31796e-05
4	2185	5.41	7.21068e-05
4	2233	5.51	6.17299e-05
4	2281	5.61	5.21101e-05
4	2329	5.71	4.32839e-05
4	2377	5.81	3.52669e-05
4	2425	5.91	2.80577e-05
4	2475	6.01	2.16404e-05
4	2523	6.11	1.59878e-05
4	2571	6.21	1.1064e-05
4	2619	6.31	6.82631e-06
4	2667	6.41	3.22748e-06
4	2715	6.51	2.17307e-07
4	2763	6.61	-2.25598e-06
4	2811	6.71	-4.24448e-06
4	2859	6.81	-5.79961e-06
4	2907	6.91	-6.97134e-06
4	2957	7.01	-7.80753e-06
4	3005	7.11	-8.35346e-06
4	3053	7.21	-8.65149e-06
4	3101	7.31	-8.7408e-06
4	3149	7.41	-8.6573e-06
4	3197	7.51	-8.43352e-06
4	3245	7.61	-8.09868e-06
4	3293	7.71	-7.67874e-06
4	3341	7.81	-7.19651e-06
4	3389	7.91	-6.67185e-06
4	3439	8.01	-6.12177e-06
4	3487	8.11	-5.56072e-06
4	3535	8.21	-5.00073e-06
4	3583	8.31	-4.45164e-06
4	3631	8.41	-3.92136e-06
4	3679	8.51	-3.41601e-06
4	3727	8.61	-2.94018e-06
4	3775	8.71	-2.4971e-06
4	3823	8.81	-2.08883e-06
4	3871	8.91	-1.71644e-06
4	3921	9.01	-1.38016e-06
4	3969	9.11	-1.07955e-06
4	4017	9.21	-8.13576e-07
4	4065	9.31	-5.80794e-07
4	4113	9.41	-3.79414e-07
4	4161	9.51	-2.07408e-07
4	4209	9.61	-6.25825e-08
4	4257	9.71	5.73472e-08
4	4305	9.81	1.54703e-07
4	4353	9.91	2.31794e-07
4	4423	10.01	2.90877e-07
4	4472	10.11	3.3413e-07
4	4521	10.21	3.63618e-07
4	4570	10.31	3.81288e-07
4	4619	10.41	3.88944e-07
4	4668	10.51	3.88249e-07
4	4717	10.61	3.80715e-07
4	4766	10.71	3.67706e-07
4	4815	10.81	3.50439e-07
4	4864	10.91	3.29989e-07
4	4915	11.01	3.07294e-07
4	4964	11.11	2.83164e-07
4	5013	11.21	2.58291e-07
4	5062	11.31	2.33253e-07
4	5111	11.41	2.0853e-07
4	5160	11.51	1.84509e-07
4	5209	11.61	1.61493e-07
4	5258	11.71	1.39716e-07
4	5307	11.81	1.19345e-07
4	5356	11.91	1.00493e-07
4	5407	12.01	8.32259e-08
4	5456	12.11	6.75676e-08
4	5505	12.21	5.35106e-08
4	5554	12.31	4.10193e-08
4	5603	12.41	3.00361e-08
4	5652	12.51	2.04874e-08
4	5701	12.61	1.22867e-08
4	5750	12.71	5.33902e-09
4	5799	12.81	-4.56524e-10
4	5848	12.91	-5.20259e-09
4	5899	13.01	-9.00258e-09
4	5948	13.11	-1.19588e-08
4	5997	13.21	-1.41693e-08
4	6046	13.31	-1.57286e-08
4	6095	13.41	-1.67255e-08
4	6144	13.51	-1.72435e-08
4	6193	13.61	-1.73589e-08
4	6242	13.71	-1.71426e-08
4	6291	13.81	-1.66573e-08
4	6340	13.91	-1.59606e-08
4	6391	14.01	-1.51029e-08
4	6440	14.11	-1.41284e-08
4	6489	14.21	-1.30754e-08
4	6538	14.31	-1.19773e-08
4	6587	14.41	-1.08614e-08
4	6636	14.51	-9.75113e-09
4	6685	14.61	-8.66542e-09
4	6734	14.71	-7.61951e-09
4	6783	14.81	-6.62475e-09
4	6832	14.91	-5.69003e-09
4	6883	15.01	-4.82103e-09
4	6932	15.11	-4.02167e-09
4	6981	15.21	-3.29372e-09
4	7030	15.31	-2.63753e-09
4	7079	15.41	-2.05205e-09
4	7128	15.51	-1.53477e-09
4	7177	15.61	-1.08287e-09
4	7226	15.71	-6.92779e-10
4	7275	15.81	-3.606e-10
4	7324	15.91	-8.13571e-11
4	7375	16.01	1.49214e-10
4	7424	16.11	3.35731e-10
4	7473	16.21	4.82459e-10
4	7522	16.31	5.94369e-10
4	7571	16.41	6.75726e-10
4	7620	16.51	7.30083e-10
4	7669	16.61	7.61702e-10
4	7718	16.71	7.73781e-10
4	7767	16.81	7.70228e-10
4	7816	16.91	7.53175e-10
4	7867	17.01	7.25819e-10
4	7916	17.11	6.90292e-10
4	7965	17.21	6.48726e-10
4	8014	17.31	6.03251e-10
4	8063	17.41	5.54934e-10
4	8112	17.51	5.05196e-10
4	8161	17.61	4.55458e-10
4	8210	17.71	4.0643e-10
4	8259	17.81	3.58824e-10
4	8308	17.91	3.13349e-10
4	8359	18.01	2.70717e-10
4	8408	18.11	2.30571e-10
4	8457	18.21	1.93623e-10
4	8506	18.31	1.59872e-10
4	8555	18.41	1.29319e-10
4	8604	18.51	1.01963e-10
4	8653	18.61	7.78044e-11
4	8702	18.71	5.64881e-11
4	8751	18.81	3.8014e-11
4	8800	18.91	2.20268e-11
4	8851	19.01	8.88178e-12
4	8900	19.11	-2.4869e-12
4	8949	19.21	-1.13687e-11
4	8998	19.31	-1.88294e-11
4	9047	19.41	-2.45137e-11
4	9096	19.51	-2.8777e-11
4	9145	19.61	-3.16192e-11
4	9194	19.71	-3.33955e-11
4	9243	19.81	-3.44613e-11
4	9292	19.91	-3.44613e-11
4	9343	20.01	-3.41061e-11
4	9392	20.11	-3.30402e-11
4	9441	20.21	-3.16192e-11
4	9490	20.31	-3.01981e-11
4	9539	20.41	-2.80664e-11
4	9588	20.51	-2.59348e-11
4	9637	20.61	-2.41585e-11
4	9686	20.71	-2.20268e-11
4	9735	20.81	-1.98952e-11
4	9784	20.91	-1.77636e-11
4	9835	21.01	-1.59872e-11
4	9884	21.11	-1.38556e-11
4	9933	21.21	-1.1724e-11
4	9982	21.31	-9.9476e-12
4	10031	21.41	-8.17124e-12
4	10080	21.51	-6.39488e-12
4	10129	21.61	-4.9738e-12
4	10178	21.71	-3.55271e-12
4	10227	21.81	-2.4869e-12
4	10276	21.91	-1.42109e-12
4	10327	22.01	-3.55271e-13
4	10376	22.11	3.55271e-13
4	10425	22.21	1.42109e-12
4	10474	22.31	2.13163e-12
4	10523	22.41	2.84217e-12
4	10572	22.51	3.19744e-12
4	10621	22.61	3.90799e-12
4	10670	22.71	4.26326e-12
4	10719	22.81	4.61853e-12
4	10768	22.91	4.9738e-12
4	10819	23.01	5.32907e-12
4	10868	23.11	5.68434e-12
4	10917	23.21	6.03961e-12
4	10966	23.31	6.39488e-12
4	11015	23.41	6.75016e-12
4	11064	23.51	6.75016e-12
4	11113	23.61	7.10543e-12
4	11162	23.71	7.10543e-12
4	11211	23.81	7.4607e-12
4	11260	23.91	7.4607e-12
4	11311	24.01	7.81597e-12
4	11360	24.11	7.81597e-12
4	11409	24.21	7.81597e-12
4	11458	24.31	7.81597e-12
4	11507	24.41	8.17124e-12
4	11556	24.51	8.17124e-12
4	11605	24.61	8.17124e-12
4	11654	24.71	8.17124e-12
4	11703	24.81	8.17124e-12
4	11752	24.91	8.52651e-12
4	11803	25.01	8.52651e-12
4	11852	25.11	8.52651e-12
4	11901	25.21	8.52651e-12
4	11950	25.31	8.52651e-12
4	11999	25.41	8.52651e-12
4	12048	25.51	8.52651e-12
4	12097	25.61	8.52651e-12
4	12146	25.71	8.52651e-12
4	12195	25.81	8.52651e-12
4	12244	25.91	8.88178e-12
4	12295	26.01	8.88178e-12
4	12344	26.11	8.88178e-12
4	12393	26.21	8.88178e-12
4	12442	26.31	8.88178e-12
4	12491	26.41	8.88178e-12
4	12540	26.51	8.88178e-12
4	12589	26.61	8.88178e-12
4	12638	26.71	8.88178e-12
4	12687	26.81	8.88178e-12
4	12736	26.91	8.88178e-12
4	12787	27.01	8.88178e-12
4	12836	27.11	8.88178e-12
4	12885	27.21	8.88178e-12
4	12934	27.31	8.88178e-12
4	12983	27.41	8.88178e-12
4	13032	27.51	8.88178e-12
4	13081	27.61	8.88178e-12
4	13130	27.71	8.88178e-12
4	13179	27.81	8.88178e-12
4	13228	27.91	8.88178e-12
4	13279	28.01	8.88178e-12
4	13328	28.11	8.88178e-12
4	13377	28.21	8.88178e-12
4	13426	28.31	8.88178e-12
4	13475	28.41	8.88178e-12
4	13524	28.51	8.88178e-12
4	13573	28.61	8.88178e-12
4	13622	28.71	8.88178e-12
4	13671	28.81	8.88178e-12
4	13720	28.91	8.88178e-12
4	13771	29.01	8.88178e-12
4	13820	29.11	8.88178e-12
4	13869	29.21	8.88178e-12
4	13918	29.31	8.88178e-12
4	13967	29.41	8.88178e-12
4	14016	29.51	8.88178e-12
4	14065	29.61	8.88178e-12
4	14114	29.71	8.88178e-12
4	14163	29.81	8.88178e-12
4	14212	29.91	8.88178e-12
[...]
19	29134	60.554488656001	1
19	29182	60.654485679865	1
19	29230	60.754482703845	1
19	29278	60.854479727945	1
19	29326	60.954476752166	1
19	29376	61.054486776513	1
19	29424	61.154483800988	1
19	29472	61.254480825594	1
19	29520	61.354477850333	1
19	29568	61.454487875209	1
19	29616	61.554484900224	1
19	29664	61.654481925381	1
19	29712	61.754478950683	1
19	29760	61.854488976133	1
19	29808	61.954486001732	1
19	29858	62.054483027485	1
19	29906	62.154480053392	1
19	29954	62.254477079456	1
19	30002	62.35448710568	1
19	30050	62.454484132067	1
19	30098	62.554481158618	1
19	30146	62.654478185337	1
19	30194	62.754488212225	1
19	30242	62.854485239283	1
19	30290	62.954482266515	1
19	30340	63.054479293923	1
19	30388	63.154489321508	1
19	30436	63.254486349273	1
19	30484	63.35448337722	1
19	30532	63.45448040535	1
19	30580	63.554477433666	1
19	30628	63.654487462169	1
19	30676	63.754484490861	1
19	30724	63.854481519744	1
19	30772	63.954478548821	1
19	30822	64.054488578092	1
19	30870	64.154485607559	1
19	30918	64.254482637224	1
19	30966	64.354479667088	1
19	31014	64.454476697154	1
19	31062	64.554486727422	1
19	31110	64.654483757895	1
19	31158	64.754480788574	1
19	31206	64.854477819459	1
19	31254	64.954487850553	1
19	31304	65.054484881857	1
19	31352	65.154481913373	1
19	31400	65.254478945101	1
19	31448	65.354488977043	1
19	31496	65.454486009201	1
19	31544	65.554483041576	1
19	31592	65.654480074169	1
19	31640	65.75447710698	1
19	31688	65.854487140013	1
19	31736	65.954484173267	1
19	31786	66.054481206744	1
19	31834	66.154478240444	1
19	31882	66.25448827437	1
19	31930	66.354485308522	1
19	31978	66.454482342901	1
19	32026	66.554479377508	1
19	32074	66.654489412344	1
19	32122	66.754486447411	1
19	32170	66.854483482709	1
19	32218	66.95448051824	1
19	32268	67.054477554003	1
19	32316	67.15448759	1
19	32364	67.254484626233	1
19	32412	67.354481662701	1
19	32460	67.454478699406	1
19	32508	67.554488736349	1
19	32556	67.654485773531	1
19	32604	67.754482810951	1
19	32652	67.854479848611	1
19	32700	67.954476886513	1
19	32750	68.054486924657	1
19	32798	68.154483963043	1
19	32846	68.254481001672	1
19	32894	68.354478040545	1
19	32942	68.454488079663	1
19	32990	68.554485119026	1
19	33038	68.654482158635	1
19	33086	68.754479198492	1
19	33134	68.854489238595	1
19	33182	68.954486278947	1
19	33232	69.054483319548	1
19	33280	69.154480360398	1
19	33328	69.254477401498	1
19	33376	69.354487442849	1
19	33424	69.454484484451	1
19	33472	69.554481526305	1
19	33520	69.654478568411	1
19	33568	69.754488610771	1
19	33616	69.854485653383	1
19	33664	69.95448269625	1
19	33714	70.054479739372	1
19	33762	70.154476782749	1
19	33810	70.254486826381	1
19	33858	70.35448387027	1
19	33906	70.454480914415	1
19	33954	70.554477958818	1
19	34002	70.654488003479	1
19	34050	70.754485048398	1
19	34098	70.854482093575	1
19	34146	70.954479139012	1
19	34196	71.054489184707	1
19	34244	71.154486230662	1
19	34292	71.254483276879	1
19	34340	71.354480323356	1
19	34388	71.454477370095	1
19	34436	71.554487417096	1
19	34484	71.654484464359	1
19	34532	71.754481511884	1
19	34580	71.854478559672	1
19	34628	71.954488607723	1
19	34678	72.054485656038	1
19	34726	72.154482704617	1
19	34774	72.254479753461	1
19	34822	72.354476802569	1
19	34870	72.454486851943	1
19	34918	72.554483901582	1
19	34966	72.654480951487	1
19	35014	72.754478001659	1
19	35062	72.854488052097	1
19	35110	72.954485102801	1
19	35160	73.054482153773	1
19	35208	73.154479205013	1
19	35256	73.254489256521	1
19	35304	73.354486308297	1
19	35352	73.454483360341	1
19	35400	73.554480412654	1
19	35448	73.654477465236	1
19	35496	73.754487518087	1
19	35544	73.854484571208	1
19	35592	73.954481624599	1
19	35642	74.05447867826	1
19	35690	74.154488732192	1
19	35738	74.254485786395	1
19	35786	74.354482840868	1
19	35834	74.454479895613	1
19	35882	74.55447695063	1
19	35930	74.654487005919	1
19	35978	74.75448406148	1
19	36026	74.854481117313	1
19	36074	74.954478173418	1
19	36124	75.054488229796	1
19	36172	75.154485286447	1
19	36220	75.254482343372	1
19	36268	75.354479400569	1
19	36316	75.45448945804	1
19	36364	75.554486515785	1
19	36412	75.654483573804	1
19	36460	75.754480632098	1
19	36508	75.854477690667	1
19	36556	75.95448774951	1
19	36606	76.054484808629	1
19	36654	76.154481868023	1
19	36702	76.254478927692	1
19	36750	76.354488987637	1
19	36798	76.454486047858	1
19	36846	76.554483108355	1
19	36894	76.654480169128	1
19	36942	76.754477230178	1
19	36990	76.854487291504	1
19	37038	76.954484353107	1
19	37088	77.054481414987	1
19	37136	77.154478477144	1
19	37184	77.254488539578	1
19	37232	77.35448560229	1
19	37280	77.45448266528	1
19	37328	77.554479728548	1
19	37376	77.654476792094	1
19	37424	77.754486855918	1
19	37472	77.85448392002	1
19	37520	77.9544809844	1
19	37570	78.05447804906	1
19	37618	78.154488113998	1
19	37666	78.254485179216	1
19	37714	78.354482244712	1
19	37762	78.454479310488	1
19	37810	78.554489376544	1
19	37858	78.654486442878	1
19	37906	78.754483509492	1
19	37954	78.854480576386	1
19	38002	78.95447764356	1
19	38052	79.054487711014	1
19	38100	79.154484778748	1
19	38148	79.254481846764	1
19	38196	79.35447891506	1
19	38244	79.454488983636	1
19	38292	79.554486052494	1
19	38340	79.654483121632	1
19	38388	79.754480191052	1
19	38436	79.854477260752	1
19	38484	79.954487330734	1
19	38534	80.054484400998	1
19	38582	80.154481471543	1
19	38630	80.25447854237	1
19	38678	80.354488613478	1
19	38726	80.454485684868	1
19	38774	80.554482756541	1
19	38822	80.654479828496	1
19	38870	80.754476900733	1
19	38918	80.854486973253	1
19	38966	80.954484046055	1
19	39016	81.05448111914	1
19	39064	81.154478192508	1
19	39112	81.254488266158	1
19	39160	81.354485340092	1
19	39208	81.454482414309	1
19	39256	81.554479488809	1
19	39304	81.654476563592	1
19	39352	81.754486638658	1
19	39400	81.854483714008	1
19	39448	81.954480789641	1
19	39498	82.054477865558	1
19	39546	82.154487941759	1
19	39594	82.254485018244	1
19	39642	82.354482095013	1
19	39690	82.454479172066	1
19	39738	82.554489249403	1
19	39786	82.654486327024	1
19	39834	82.754483404929	1
19	39882	82.854480483119	1
19	39930	82.954477561594	1
19	39980	83.054487640353	1
19	40028	83.154484719397	1
19	40076	83.254481798726	1
19	40124	83.354478878339	1
19	40172	83.454488958238	1
19	40220	83.554486038421	1
19	40268	83.65448311889	1
19	40316	83.754480199644	1
19	40364	83.854477280683	1
19	40412	83.954487362008	1
19	40462	84.054484443618	1
19	40510	84.154481525513	1
19	40558	84.254478607694	1
19	40606	84.354488690161	1
19	40654	84.454485772914	1
19	40702	84.554482855953	1
19	40750	84.654479939278	1
19	40798	84.754477022889	1
19	40846	84.854487106786	1
19	40894	84.954484190969	1
19	40944	85.054481275438	1
19	40992	85.154478360193	1
19	41040	85.254488445234	1
19	41088	85.354485530561	1
19	41136	85.454482616174	1
19	41184	85.554479702075	1
19	41232	85.654476788262	1
19	41280	85.754486874735	1
19	41328	85.854483961496	1
19	41376	85.954481048543	1
19	41426	86.054478135878	1
19	41474	86.154488223499	1
19	41522	86.254485311408	1
19	41570	86.354482399603	1
19	41618	86.454479488086	1
19	41666	86.554476576855	1
19	41714	86.654486665912	1
19	41762	86.754483755256	1
19	41810	86.854480844887	1
19	41858	86.954477934806	1
19	41908	87.054488025013	1
19	41956	87.154485115506	1
19	42004	87.254482206287	1
19	42052	87.354479297356	1
19	42100	87.454489388713	1
19	42148	87.554486480358	1
19	42196	87.654483572291	1
19	42244	87.754480664511	1
19	42292	87.854477757019	1
19	42340	87.954487849815	1
19	42390	88.054484942899	1
19	42438	88.154482036271	1
19	42486	88.254479129932	1
19	42534	88.354489223881	1
19	42582	88.454486318118	1
19	42630	88.554483412643	1
19	42678	88.654480507456	1
19	42726	88.754477602558	1
19	42774	88.854487697948	1
19	42822	88.954484793627	1
19	42872	89.054481889594	1
19	42920	89.15447898585	1
19	42968	89.254489082395	1
19	43016	89.354486179228	1
19	43064	89.45448327635	1
19	43112	89.554480373761	1
19	43160	89.65447747146	1
19	43208	89.754487569449	1
19	43256	89.854484667726	1
19	43304	89.954481766292	1
19	43354	90.054478865147	1
19	43402	90.154488964291	1
19	43450	90.254486063724	1
19	43498	90.354483163447	1
19	43546	90.454480263459	1
19	43594	90.55447736376	1
19	43642	90.65448746435	1
19	43690	90.754484565229	1
19	43738	90.854481666398	1
19	43786	90.954478767856	1
19	43836	91.054488869604	1
19	43884	91.154485971641	1
19	43932	91.254483073968	1
19	43980	91.354480176584	1
19	44028	91.45447727949	1
19	44076	91.554487382685	1
19	44124	91.65448448617	1
19	44172	91.754481589945	1
19	44220	91.85447869401	1
19	44268	91.954488798364	1
19	44318	92.054485903008	1
19	44366	92.154483007942	1
19	44414	92.254480113166	1
19	44462	92.35447721868	1
19	44510	92.454487324484	1
19	44558	92.554484430578	1
19	44606	92.654481536962	1
19	44654	92.754478643636	1
19	44702	92.8544887506	1
19	44750	92.954485857854	1
19	44800	93.054482965398	1
19	44848	93.154480073232	1
19	44896	93.254477181357	1
19	44944	93.354487289772	1
19	44992	93.454484398477	1
19	45040	93.554481507473	1
19	45088	93.654478616759	1
19	45136	93.754488726335	1
19	45184	93.854485836202	1
19	45232	93.954482946359	1
19	45282	94.054480056807	1
19	45330	94.154477167545	1
19	45378	94.254487278574	1
19	45426	94.354484389894	1
19	45474	94.454481501504	1
19	45522	94.554478613405	1
19	45570	94.654488725597	1
19	45618	94.754485838079	1
19	45666	94.854482950852	1
19	45714	94.954480063916	1
19	45764	95.054477177271	1
19	45812	95.154487290917	1
19	45860	95.254484404853	1
19	45908	95.35448151908	1
19	45956	95.454478633598	1
19	46004	95.554488748407	1
19	46052	95.654485863507	1
19	46100	95.754482978898	1
19	46148	95.85448009458	1
19	46196	95.954477210553	1
19	46246	96.054487326817	1
19	46294	96.154484443373	1
19	46342	96.254481560219	1
19	46390	96.354478677357	1
19	46438	96.454488794786	1
19	46486	96.554485912506	1
19	46534	96.654483030518	1
19	46582	96.754480148821	1
19	46630	96.854477267415	1
19	46678	96.954487386301	1
19	46728	97.054484505478	1
19	46776	97.154481624946	1
19	46824	97.254478744706	1
19	46872	97.354488864757	1
19	46920	97.454485985099	1
19	46968	97.554483105733	1
19	47016	97.654480226659	1
19	47064	97.754477347876	1
19	47112	97.854487469384	1
19	47160	97.954484591184	1
19	47210	98.054481713276	1
19	47258	98.15447883566	1
19	47306	98.254488958335	1
19	47354	98.354486081301	1
19	47402	98.454483204559	1
19	47450	98.554480328109	1
19	47498	98.654477451951	1
19	47546	98.754487576085	1
19	47594	98.854484700511	1
19	47642	98.954481825228	1
19	47692	99.054478950237	1
19	47740	99.154489075538	1
19	47788	99.25448620113	1
19	47836	99.354483327014	1
19	47884	99.45448045319	1
19	47932	99.554477579658	1
19	47980	99.654487706418	1
19	48028	99.75448483347	1
19	48076	99.854481960814	1
19	48124	99.95447908845	1
20	544	2	0
20	1026	3	0
20	1508	4	0
20	1990	5	0
20	2472	6	0
20	2954	7	0
20	3436	8	0
20	3918	9	0
20	4401	10	0
20	4911	11	0
20	5403	12	0
20	5895	13	0
20	6387	14	0
20	6879	15	0
20	7371	16	0
20	7863	17	0
20	8355	18	0
20	8847	19	0
20	9339	20	0
20	9831	21	0
20	10323	22	0
20	10815	23	0
20	11307	24	0
20	11799	25	0
20	12291	26	0
20	12783	27	0
20	13275	28	0
20	13767	29	0
20	14259	30	0
20	14751	31	0
20	15243	32	0
20	15735	33	0
20	16227	34	0
20	16719	35	0
20	17211	36	0
20	17764	37	0
20	18246	38	0
20	18728	39	0
20	19210	40	0
20	19692	41	0
20	20174	42	0
20	20656	43	0
20	21138	44	0
20	21620	45	0
20	22102	46	0
20	22584	47	0
20	23066	48	0
20	23548	49	0
20	24030	50	0
20	24512	51	0
20	24994	52	0
20	25476	53	0
20	25958	54	0
20	26440	55	0
20	26922	56	0
20	27404	57	0
20	27886	58	0
20	28368	59	0
20	28850	60	0
20	29332	61	0
20	29814	62	0
20	30296	63	0
20	30778	64	0
20	31260	65	0
20	31742	66	0
20	32224	67	0
20	32706	68	0
20	33188	69	0
20	33670	70	0
20	34152	71	0
20	34634	72	0
20	35116	73	0
20	35598	74	0
20	36080	75	0
20	36562	76	0
20	37044	77	0
20	37526	78	0
20	38008	79	0
20	38490	80	0
20	38972	81	0
20	39454	82	0
20	39936	83	0
20	40418	84	0
20	40900	85	0
20	41382	86	0
20	41864	87	0
20	42346	88	0
20	42828	89	0
20	43310	90	0
20	43792	91	0
20	44274	92	0
20	44756	93	0
20	45238	94	0
20	45720	95	0
20	46202	96	0
20	46684	97	0
20	47166	98	0
20	47648	99	0
20	48130	100	0
21	544	2	0.005625
21	1026	3	0.00625
21	1508	4	0.00625
21	1990	5	0.00625
21	2472	6	0.00625
21	2954	7	0.00625
21	3436	8	0.00625
21	3918	9	0.00625
21	4401	10	0.00625
21	4911	11	0.006299
21	5403	12	0.00625
21	5895	13	0.00625
21	6387	14	0.00625
21	6879	15	0.00625
21	7371	16	0.00625
21	7863	17	0.00625
21	8355	18	0.00625
21	8847	19	0.00625
21	9339	20	0.00625
21	9831	21	0.00625
21	10323	22	0.00625
21	10815	23	0.00625
21	11307	24	0.00625
21	11799	25	0.00625
21	12291	26	0.00625
21	12783	27	0.00625
21	13275	28	0.00625
21	13767	29	0.00625
21	14259	30	0.00625
21	14751	31	0.00625
21	15243	32	0.00625
21	15735	33	0.00625
21	16227	34	0.00625
21	16719	35	0.00625
21	17211	36	0.00625
21	17764	37	0.006539059378
21	18246	38	0.00625
21	18728	39	0.00625
21	19210	40	0.00625
21	19692	41	0.00625
21	20174	42	0.00625
21	20656	43	0.00625
21	21138	44	0.00625
21	21620	45	0.00625
21	22102	46	0.00625
21	22584	47	0.00625
21	23066	48	0.00625
21	23548	49	0.00625
21	24030	50	0.00625
21	24512	51	0.00625
21	24994	52	0.00625
21	25476	53	0.00625
21	25958	54	0.00625
21	26440	55	0.00625
21	26922	56	0.00625
21	27404	57	0.00625
21	27886	58	0.00625
21	28368	59	0.00625
21	28850	60	0.00625
21	29332	61	0.00625
21	29814	62	0.00625
21	30296	63	0.00625
21	30778	64	0.00625
21	31260	65	0.00625
21	31742	66	0.00625
21	32224	67	0.00625
21	32706	68	0.00625
21	33188	69	0.00625
21	33670	70	0.00625
21	34152	71	0.00625
21	34634	72	0.00625
21	35116	73	0.00625
21	35598	74	0.00625
21	36080	75	0.00625
21	36562	76	0.00625
21	37044	77	0.00625
21	37526	78	0.00625
21	38008	79	0.00625
21	38490	80	0.00625
21	38972	81	0.00625
21	39454	82	0.00625
21	39936	83	0.00625
21	40418	84	0.00625
21	40900	85	0.00625
21	41382	86	0.00625
21	41864	87	0.00625
21	42346	88	0.00625
21	42828	89	0.00625
21	43310	90	0.00625
21	43792	91	0.00625
21	44274	92	0.00625
21	44756	93	0.00625
21	45238	94	0.00625
21	45720	95	0.00625
21	46202	96	0.00625
21	46684	97	0.00625
21	47166	98	0.00625
21	47648	99	0.00625
21	48130	100	0.00625
22	544	2	0
22	1026	3	0
22	1508	4	0
22	1990	5	0
22	2472	6	0
22	2954	7	0
22	3436	8	0
22	3918	9	0
22	4401	10	0
22	4911	11	0
22	5403	12	0
22	5895	13	0
22	6387	14	0
22	6879	15	0
22	7371	16	0
22	7863	17	0
22	8355	18	0
22	8847	19	0
22	9339	20	0
22	9831	21	0
22	10323	22	0
22	10815	23	0
22	11307	24	0
22	11799	25	0
22	12291	26	0
22	12783	27	0
22	13275	28	0
22	13767	29	0
22	14259	30	0
22	14751	31	0
22	15243	32	0
22	15735	33	0
22	16227	34	0
22	16719	35	0
22	17211	36	0
22	17764	37	0
22	18246	38	0
22	18728	39	0
22	19210	40	0
22	19692	41	0
22	20174	42	0
22	20656	43	0
22	21138	44	0
22	21620	45	0
22	22102	46	0
22	22584	47	0
22	23066	48	0
22	23548	49	0
22	24030	50	0
22	24512	51	0
22	24994	52	0
22	25476	53	0
22	25958	54	0
22	26440	55	0
22	26922	56	0
22	27404	57	0
22	27886	58	0
22	28368	59	0
22	28850	60	0
22	29332	61	0
22	29814	62	0
22	30296	63	0
22	30778	64	0
22	31260	65	0
22	31742	66	0
22	32224	67	0
22	32706	68	0
22	33188	69	0
22	33670	70	0
22	34152	71	0
22	34634	72	0
22	35116	73	0
22	35598	74	0
22	36080	75	0
22	36562	76	0
22	37044	77	0
22	37526	78	0
22	38008	79	0
22	38490	80	0
22	38972	81	0
22	39454	82	0
22	39936	83	0
22	40418	84	0
22	40900	85	0
22	41382	86	0
22	41864	87	0
22	42346	88	0
22	42828	89	0
22	43310	90	0
22	43792	91	0
22	44274	92	0
22	44756	93	0
22	45238	94	0
22	45720	95	0
22	46202	96	0
22	46684	97	0
22	47166	98	0
22	47648	99	0
22	48130	100	0
23	545	2	1
23	1027	3	1
23	1509	4	1
23	1991	5	1
23	2473	6	1
23	2955	7	1
23	3437	8	1
23	3919	9	1
23	4402	10	1
23	4912	11	1
23	5404	12	1
23	5896	13	1
23	6388	14	1
23	6880	15	1
23	7372	16	1
23	7864	17	1
23	8356	18	1
23	8848	19	1
23	9340	20	1
23	9832	21	1
23	10324	22	1
23	10816	23	1
23	11308	24	1
23	11800	25	1
23	12292	26	1
23	12784	27	1
23	13276	28	1
23	13768	29	1
23	14260	30	1
23	14752	31	1
23	15244	32	1
23	15736	33	1
23	16228	34	1
23	16720	35	1
23	17212	36	1
23	17765	37	1
23	18247	38	1
23	18729	39	1
23	19211	40	1
23	19693	41	1
23	20175	42	1
23	20657	43	1
23	21139	44	1
23	21621	45	1
23	22103	46	1
23	22585	47	1
23	23067	48	1
23	23549	49	1
23	24031	50	1
23	24513	51	1
23	24995	52	1
23	25477	53	1
23	25959	54	1
23	26441	55	1
23	26923	56	1
23	27405	57	1
23	27887	58	1
23	28369	59	1
23	28851	60	1
23	29333	61	1
23	29815	62	1
23	30297	63	1
23	30779	64	1
23	31261	65	1
23	31743	66	1
23	32225	67	1
23	32707	68	1
23	33189	69	1
23	33671	70	1
23	34153	71	1
23	34635	72	1
23	35117	73	1
23	35599	74	1
23	36081	75	1
23	36563	76	1
23	37045	77	1
23	37527	78	1
23	38009	79	1
23	38491	80	1
23	38973	81	1
23	39455	82	1
23	39937	83	1
23	40419	84	1
23	40901	85	1
23	41383	86	1
23	41865	87	1
23	42347	88	1
23	42829	89	1
23	43311	90	1
23	43793	91	1
23	44275	92	1
23	44757	93	1
23	45239	94	1
23	45721	95	1
23	46203	96	1
23	46685	97	1
23	47167	98	1
23	47649	99	1
23	48131	100	1
24	545	2	0.005625
24	1027	3	0.00625
24	1509	4	0.00625
24	1991	5	0.00625
24	2473	6	0.00625
24	2955	7	0.00625
24	3437	8	0.00625
24	3919	9	0.00625
24	4402	10	0.00625
24	4912	11	0.006298
24	5404	12	0.00625
24	5896	13	0.00625
24	6388	14	0.00625
24	6880	15	0.00625
24	7372	16	0.00625
24	7864	17	0.00625
24	8356	18	0.00625
24	8848	19	0.00625
24	9340	20	0.00625
24	9832	21	0.00625
24	10324	22	0.00625
24	10816	23	0.00625
24	11308	24	0.00625
24	11800	25	0.00625
24	12292	26	0.00625
24	12784	27	0.00625
24	13276	28	0.00625
24	13768	29	0.00625
24	14260	30	0.00625
24	14752	31	0.00625
24	15244	32	0.00625
24	15736	33	0.00625
24	16228	34	0.00625
24	16720	35	0.00625
24	17212	36	0.00625
24	17765	37	0.006539059378
24	18247	38	0.00625
24	18729	39	0.00625
24	19211	40	0.00625
24	19693	41	0.00625
24	20175	42	0.00625
24	20657	43	0.00625
24	21139	44	0.00625
24	21621	45	0.00625
24	22103	46	0.00625
24	22585	47	0.00625
24	23067	48	0.00625
24	23549	49	0.00625
24	24031	50	0.00625
24	24513	51	0.00625
24	24995	52	0.00625
24	25477	53	0.00625
24	25959	54	0.00625
24	26441	55	0.00625
24	26923	56	0.00625
24	27405	57	0.00625
24	27887	58	0.00625
24	28369	59	0.00625
24	28851	60	0.00625
24	29333	61	0.00625
24	29815	62	0.00625
24	30297	63	0.00625
24	30779	64	0.00625
24	31261	65	0.00625
24	31743	66	0.00625
24	32225	67	0.00625
24	32707	68	0.00625
24	33189	69	0.00625
24	33671	70	0.00625
24	34153	71	0.00625
24	34635	72	0.00625
24	35117	73	0.00625
24	35599	74	0.00625
24	36081	75	0.00625
24	36563	76	0.00625
24	37045	77	0.00625
24	37527	78	0.00625
24	38009	79	0.00625
24	38491	80	0.00625
24	38973	81	0.00625
24	39455	82	0.00625
24	39937	83	0.00625
24	40419	84	0.00625
24	40901	85	0.00625
24	41383	86	0.00625
24	41865	87	0.00625
24	42347	88	0.00625
24	42829	89	0.00625
24	43311	90	0.00625
24	43793	91	0.00625
24	44275	92	0.00625
24	44757	93	0.00625
24	45239	94	0.00625
24	45721	95	0.00625
24	46203	96	0.00625
24	46685	97	0.00625
24	47167	98	0.00625
24	47649	99	0.00625
24	48131	100	0.00625
25	545	2	0
25	1027	3	0
25	1509	4	0
25	1991	5	0
25	2473	6	0
25	2955	7	0
25	3437	8	0
25	3919	9	0
25	4402	10	0
25	4912	11	0
25	5404	12	0
25	5896	13	0
25	6388	14	0
25	6880	15	0
25	7372	16	0
25	7864	17	0
25	8356	18	0
25	8848	19	0
25	9340	20	0
25	9832	21	0
25	10324	22	0
25	10816	23	0
25	11308	24	0
25	11800	25	0
25	12292	26	0
25	12784	27	0
25	13276	28	0
25	13768	29	0
25	14260	30	0
25	14752	31	0
25	15244	32	0
25	15736	33	0
25	16228	34	0
25	16720	35	0
25	17212	36	0
25	17765	37	0
25	18247	38	0
25	18729	39	0
25	19211	40	0
25	19693	41	0
25	20175	42	0
25	20657	43	0
25	21139	44	0
25	21621	45	0
25	22103	46	0
25	22585	47	0
25	23067	48	0
25	23549	49	0
25	24031	50	0
25	24513	51	0
25	24995	52	0
25	25477	53	0
25	25959	54	0
25	26441	55	0
25	26923	56	0
25	27405	57	0
25	27887	58	0
25	28369	59	0
25	28851	60	0
25	29333	61	0
25	29815	62	0
25	30297	63	0
25	30779	64	0
25	31261	65	0
25	31743	66	0
25	32225	67	0
25	32707	68	0
25	33189	69	0
25	33671	70	0
25	34153	71	0
25	34635	72	0
25	35117	73	0
25	35599	74	0
25	36081	75	0
25	36563	76	0
25	37045	77	0
25	37527	78	0
25	38009	79	0
25	38491	80	0
25	38973	81	0
25	39455	82	0
25	39937	83	0
25	40419	84	0
25	40901	85	0
25	41383	86	0
25	41865	87	0
25	42347	88	0
25	42829	89	0
25	43311	90	0
25	43793	91	0
25	44275	92	0
25	44757	93	0
25	45239	94	0
25	45721	95	0
25	46203	96	0
25	46685	97	0
25	47167	98	0
25	47649	99	0
25	48131	100	0

