file 5328898 1720629093                                         
version 3
run BreakRanksNoGui-89-20240710-18:31:05-279022
attr configname BreakRanksNoGui
attr datetime 20240710-18:31:05
attr datetimef 20240710-183105
attr experiment BreakRanksNoGui
attr inifile omnetpp.ini
attr iterationvars "$nCars=16, $platoonSize=16, $nLanes=1, $ploegH=0.5, $controller=1, $headway=0.1, $leaderHeadway=1.2, $leaderSpeed=110, $breakRanksSafetyDistance=10, $minSpeed=100, $maxSpeed=120, $beaconInterval=0.1, $priority=4, $packetSize=200, $sController=\"CACC\", $0=2, $1=0"
attr iterationvarsd nCars=16/platoonSize=16/nLanes=1/ploegH=0.5/controller=1/headway=0.1/leaderHeadway=1.2/leaderSpeed=110/breakRanksSafetyDistance=10/minSpeed=100/maxSpeed=120/beaconInterval=0.1/priority=4/packetSize=200/sController=CACC/2/0
attr iterationvarsf nCars=16,platoonSize=16,nLanes=1,ploegH=0.5,controller=1,headway=0.1,leaderHeadway=1.2,leaderSpeed=110,breakRanksSafetyDistance=10,minSpeed=100,maxSpeed=120,beaconInterval=0.1,priority=4,packetSize=200,sController=CACC,2,0-
attr measurement "$nCars=16, $platoonSize=16, $nLanes=1, $ploegH=0.5, $controller=1, $headway=0.1, $leaderHeadway=1.2, $leaderSpeed=110, $breakRanksSafetyDistance=10, $minSpeed=100, $maxSpeed=120, $beaconInterval=0.1, $priority=4, $packetSize=200, $sController=\"CACC\", $0=2, $1=0"
attr network Highway
attr processid 279022
attr repetition 9
attr replication #9
attr resultdir results
attr runnumber 89
attr seedset 9
itervar beaconInterval 0.1
itervar breakRanksSafetyDistance 10
itervar controller 1
itervar headway 0.1
itervar leaderHeadway 1.2
itervar leaderSpeed 110
itervar maxSpeed 120
itervar minSpeed 100
itervar nCars 16
itervar nLanes 1
itervar packetSize 200
itervar platoonSize 16
itervar ploegH 0.5
itervar priority 4
itervar sController "\"CACC\""
config image-path ../../../veins/images
config repeat 10
config extends BreakRanks
config *.manager.command "\"sumo\""
config *.manager.ignoreGuiCommands true
config output-vector-file "results/BreakRanks_1_0.1_110_10_16 /result_9.vec"
config output-scalar-file "results/BreakRanks_1_0.1_110_10_16 /result_9.sca"
config extends Platooning
config *.node[*].scenario_type "\"BreakRanksScenario\""
config *.manager.command "\"sumo-gui\""
config *.node[*].scenario_type "\"SimpleScenario\""
config cmdenv-express-mode true
config cmdenv-autoflush true
config cmdenv-status-frequency 15s
config num-rngs 6
config network Highway
config debug-on-errors true
config print-undisposed true
config *.playgroundSizeX 65000m
config *.playgroundSizeY 25000m
config *.playgroundSizeZ 50m
config sim-time-limit "100 s"
config *.annotations.draw false
config *.obstacles.debug false
config *.world.useTorus false
config *.world.use2D false
config *.manager.updateInterval 0.01s
config *.manager.host "\"localhost\""
config *.manager.moduleType "\"org.car2x.plexe.PlatoonCar\""
config *.manager.moduleName "\"node\""
config *.manager.moduleDisplayString "\"\""
config *.manager.autoShutdown true
config *.manager.margin 25
config *.connectionManager.sendDirect true
config *.connectionManager.maxInterfDist 2600m
config *.connectionManager.drawMaxIntfDist false
config *.**.nic.mac1609_4.useServiceChannel false
config *.**.nic.mac1609_4.txPower 100mW
config *.**.nic.mac1609_4.bitrate 6Mbps
config *.**.nic.mac1609_4.useAcks true
config *.**.nic.mac1609_4.ackErrorRate 0.0
config *.**.nic.mac1609_4.frameErrorRate 0.0
config *.**.nic.phy80211p.minPowerLevel -94dBm
config *.**.nic.phy80211p.maxTXPower 100mW
config *.**.nic.phy80211p.useNoiseFloor true
config *.**.nic.phy80211p.noiseFloor -95dBm
config *.**.nic.phy80211p.decider "xmldoc(\"config.xml\")"
config *.**.nic.phy80211p.analogueModels "xmldoc(\"config.xml\")"
config *.**.nic.phy80211p.usePropagationDelay true
config *.node[*].mobility.x 0
config *.node[*].mobility.y 0
config *.node[*].mobility.z 1.895
config seed-set 9
config **.seed 9
config *.node[*].prot.rng-0 2
config *.node[*].appl.rng-0 3
config *.node[*].scenario.rng-0 4
config **.traffic.rng-0 5
config *.manager.configFile "\"./sumocfg/freeway.sumo.cfg\""
config *.manager.launchConfig "xmldoc(\"./sumocfg/freeway.launchd.xml\")"
config **.numberOfCars 16
config **.numberOfCarsPerPlatoon 16
config **.numberOfLanes 1
config *.node[*].helper_type "\"PositionHelper\""
config *.node[*].scenario.caccC1 0.5
config *.node[*].scenario.caccXi 1
config *.node[*].scenario.caccOmegaN "0.2 Hz"
config *.node[*].scenario.caccSpacing "2 m"
config *.node[*].scenario.engineTau "0.5 s"
config *.node[*].scenario.ploegH 0.5s
config *.node[*].scenario.ploegKp 0.2
config *.node[*].scenario.ploegKd 0.7
config *.node[*].scenario.useRealisticEngine false
config *.node[*].scenario.useControllerAcceleration true
config *.node[*].scenario.nLanes 1
config **.numericController 1
config **.headway 0.1s
config *.node[*].scenario.accHeadway 0.1s
config *.node[*].scenario.leaderHeadway 1.2s
config *.node[*].scenario.leaderSpeed 110kmph
config *.node[*].appl_type "\"SimplePlatooningApp\""
config *.node[*].appl.*.scalar-recording true
config *.node[*].appl.*.vector-recording true
config *.node[0].appl.breakRanksSafetyDistance 10m
config *.node[*].appl.minSpeed 100kmph
config *.node[*].appl.maxSpeed 120kmph
config *.node[*].protocol_type "\"SimplePlatooningBeaconing\""
config *.node[*].prot.*.scalar-recording true
config *.node[*].prot.*.vector-recording true
config *.node[*].prot.beaconingInterval 0.1s
config *.node[*].prot.priority 4
config *.node[*].prot.packetSize 200
config **.traffic_type "\"PlatoonsTrafficManager\""
config **.traffic.platoonInsertTime "1 s"
config **.traffic.platoonInsertSpeed 110kmph
config **.traffic.nCars 16
config **.traffic.platoonSize 16
config **.traffic.nLanes 1
config **.traffic.platooningVType "\"vtypeauto\""
config **.traffic.controller "\"CACC\""
config **.traffic.platoonInsertDistance 2m
config **.traffic.platoonInsertHeadway 0s
config **.traffic.platoonLeaderHeadway 1.2s
config **.scalar-recording false
config **.vector-recording false

vector 0 Highway.node[0].appl distance ETV
vector 1 Highway.node[0].appl relativeSpeed ETV
vector 2 Highway.node[0].appl nodeId ETV
vector 3 Highway.node[0].appl acceleration ETV
vector 4 Highway.node[0].appl controllerAcceleration ETV
vector 5 Highway.node[0].appl speed ETV
vector 6 Highway.node[0].appl posx ETV
vector 7 Highway.node[0].appl posy ETV
vector 8 Highway.node[1].appl distance ETV
vector 9 Highway.node[1].appl relativeSpeed ETV
vector 10 Highway.node[1].appl nodeId ETV
vector 11 Highway.node[1].appl acceleration ETV
vector 12 Highway.node[1].appl controllerAcceleration ETV
vector 13 Highway.node[1].appl speed ETV
vector 14 Highway.node[1].appl posx ETV
vector 15 Highway.node[1].appl posy ETV
vector 16 Highway.node[2].appl distance ETV
vector 17 Highway.node[2].appl relativeSpeed ETV
vector 18 Highway.node[2].appl nodeId ETV
vector 19 Highway.node[2].appl acceleration ETV
vector 20 Highway.node[2].appl controllerAcceleration ETV
vector 21 Highway.node[2].appl speed ETV
vector 22 Highway.node[2].appl posx ETV
vector 23 Highway.node[2].appl posy ETV
vector 24 Highway.node[3].appl distance ETV
vector 25 Highway.node[3].appl relativeSpeed ETV
vector 26 Highway.node[3].appl nodeId ETV
vector 27 Highway.node[3].appl acceleration ETV
vector 28 Highway.node[3].appl controllerAcceleration ETV
vector 29 Highway.node[3].appl speed ETV
vector 30 Highway.node[3].appl posx ETV
vector 31 Highway.node[3].appl posy ETV
vector 32 Highway.node[4].appl distance ETV
vector 33 Highway.node[4].appl relativeSpeed ETV
vector 34 Highway.node[4].appl nodeId ETV
vector 35 Highway.node[4].appl acceleration ETV
vector 36 Highway.node[4].appl controllerAcceleration ETV
vector 37 Highway.node[4].appl speed ETV
vector 38 Highway.node[4].appl posx ETV
vector 39 Highway.node[4].appl posy ETV
vector 40 Highway.node[5].appl distance ETV
vector 41 Highway.node[5].appl relativeSpeed ETV
vector 42 Highway.node[5].appl nodeId ETV
vector 43 Highway.node[5].appl acceleration ETV
vector 44 Highway.node[5].appl controllerAcceleration ETV
vector 45 Highway.node[5].appl speed ETV
vector 46 Highway.node[5].appl posx ETV
vector 47 Highway.node[5].appl posy ETV
vector 48 Highway.node[6].appl distance ETV
vector 49 Highway.node[6].appl relativeSpeed ETV
vector 50 Highway.node[6].appl nodeId ETV
vector 51 Highway.node[6].appl acceleration ETV
vector 52 Highway.node[6].appl controllerAcceleration ETV
vector 53 Highway.node[6].appl speed ETV
vector 54 Highway.node[6].appl posx ETV
vector 55 Highway.node[6].appl posy ETV
vector 56 Highway.node[7].appl distance ETV
vector 57 Highway.node[7].appl relativeSpeed ETV
vector 58 Highway.node[7].appl nodeId ETV
vector 59 Highway.node[7].appl acceleration ETV
vector 60 Highway.node[7].appl controllerAcceleration ETV
vector 61 Highway.node[7].appl speed ETV
vector 62 Highway.node[7].appl posx ETV
vector 63 Highway.node[7].appl posy ETV
vector 64 Highway.node[8].appl distance ETV
vector 65 Highway.node[8].appl relativeSpeed ETV
vector 66 Highway.node[8].appl nodeId ETV
vector 67 Highway.node[8].appl acceleration ETV
vector 68 Highway.node[8].appl controllerAcceleration ETV
vector 69 Highway.node[8].appl speed ETV
vector 70 Highway.node[8].appl posx ETV
vector 71 Highway.node[8].appl posy ETV
vector 72 Highway.node[9].appl distance ETV
vector 73 Highway.node[9].appl relativeSpeed ETV
vector 74 Highway.node[9].appl nodeId ETV
vector 75 Highway.node[9].appl acceleration ETV
vector 76 Highway.node[9].appl controllerAcceleration ETV
vector 77 Highway.node[9].appl speed ETV
vector 78 Highway.node[9].appl posx ETV
vector 79 Highway.node[9].appl posy ETV
vector 80 Highway.node[10].appl distance ETV
vector 81 Highway.node[10].appl relativeSpeed ETV
vector 82 Highway.node[10].appl nodeId ETV
vector 83 Highway.node[10].appl acceleration ETV
vector 84 Highway.node[10].appl controllerAcceleration ETV
vector 85 Highway.node[10].appl speed ETV
vector 86 Highway.node[10].appl posx ETV
vector 87 Highway.node[10].appl posy ETV
vector 88 Highway.node[11].appl distance ETV
vector 89 Highway.node[11].appl relativeSpeed ETV
vector 90 Highway.node[11].appl nodeId ETV
vector 91 Highway.node[11].appl acceleration ETV
vector 92 Highway.node[11].appl controllerAcceleration ETV
vector 93 Highway.node[11].appl speed ETV
vector 94 Highway.node[11].appl posx ETV
vector 95 Highway.node[11].appl posy ETV
vector 96 Highway.node[12].appl distance ETV
vector 97 Highway.node[12].appl relativeSpeed ETV
vector 98 Highway.node[12].appl nodeId ETV
vector 99 Highway.node[12].appl acceleration ETV
vector 100 Highway.node[12].appl controllerAcceleration ETV
vector 101 Highway.node[12].appl speed ETV
vector 102 Highway.node[12].appl posx ETV
vector 103 Highway.node[12].appl posy ETV
vector 104 Highway.node[13].appl distance ETV
vector 105 Highway.node[13].appl relativeSpeed ETV
vector 106 Highway.node[13].appl nodeId ETV
vector 107 Highway.node[13].appl acceleration ETV
vector 108 Highway.node[13].appl controllerAcceleration ETV
vector 109 Highway.node[13].appl speed ETV
vector 110 Highway.node[13].appl posx ETV
vector 111 Highway.node[13].appl posy ETV
vector 112 Highway.node[14].appl distance ETV
vector 113 Highway.node[14].appl relativeSpeed ETV
vector 114 Highway.node[14].appl nodeId ETV
vector 115 Highway.node[14].appl acceleration ETV
vector 116 Highway.node[14].appl controllerAcceleration ETV
vector 117 Highway.node[14].appl speed ETV
vector 118 Highway.node[14].appl posx ETV
vector 119 Highway.node[14].appl posy ETV
vector 120 Highway.node[15].appl distance ETV
vector 121 Highway.node[15].appl relativeSpeed ETV
vector 122 Highway.node[15].appl nodeId ETV
vector 123 Highway.node[15].appl acceleration ETV
vector 124 Highway.node[15].appl controllerAcceleration ETV
vector 125 Highway.node[15].appl speed ETV
vector 126 Highway.node[15].appl posx ETV
vector 127 Highway.node[15].appl posy ETV
vector 128 Highway.node[8].prot frontDelay ETV
vector 129 Highway.node[8].prot frontDelayId ETV
vector 130 Highway.node[2].prot frontDelay ETV
vector 131 Highway.node[2].prot frontDelayId ETV
vector 132 Highway.node[10].prot frontDelay ETV
vector 133 Highway.node[10].prot frontDelayId ETV
vector 134 Highway.node[7].prot frontDelay ETV
vector 135 Highway.node[7].prot frontDelayId ETV
vector 136 Highway.node[13].prot frontDelay ETV
vector 137 Highway.node[13].prot frontDelayId ETV
vector 138 Highway.node[12].prot frontDelay ETV
vector 139 Highway.node[12].prot frontDelayId ETV
vector 140 Highway.node[3].prot frontDelay ETV
vector 141 Highway.node[3].prot frontDelayId ETV
vector 142 Highway.node[9].prot frontDelay ETV
vector 143 Highway.node[9].prot frontDelayId ETV
vector 144 Highway.node[6].prot frontDelay ETV
vector 145 Highway.node[6].prot frontDelayId ETV
vector 146 Highway.node[15].prot frontDelay ETV
vector 147 Highway.node[15].prot frontDelayId ETV
vector 148 Highway.node[5].prot frontDelay ETV
vector 149 Highway.node[5].prot frontDelayId ETV
vector 150 Highway.node[11].prot frontDelay ETV
vector 151 Highway.node[11].prot frontDelayId ETV
vector 152 Highway.node[4].prot frontDelay ETV
vector 153 Highway.node[4].prot frontDelayId ETV
vector 154 Highway.node[14].prot frontDelay ETV
vector 155 Highway.node[14].prot frontDelayId ETV
vector 156 Highway.node[1].prot leaderDelay ETV
vector 157 Highway.node[1].prot leaderDelayId ETV
vector 158 Highway.node[1].prot frontDelay ETV
vector 159 Highway.node[1].prot frontDelayId ETV
vector 160 Highway.node[8].prot leaderDelay ETV
vector 161 Highway.node[8].prot leaderDelayId ETV
vector 162 Highway.node[9].prot leaderDelay ETV
vector 163 Highway.node[9].prot leaderDelayId ETV
vector 164 Highway.node[10].prot leaderDelay ETV
vector 165 Highway.node[10].prot leaderDelayId ETV
vector 166 Highway.node[11].prot leaderDelay ETV
vector 167 Highway.node[11].prot leaderDelayId ETV
vector 168 Highway.node[12].prot leaderDelay ETV
vector 169 Highway.node[12].prot leaderDelayId ETV
vector 170 Highway.node[13].prot leaderDelay ETV
vector 171 Highway.node[13].prot leaderDelayId ETV
vector 172 Highway.node[14].prot leaderDelay ETV
vector 173 Highway.node[14].prot leaderDelayId ETV
vector 174 Highway.node[15].prot leaderDelay ETV
vector 175 Highway.node[15].prot leaderDelayId ETV
vector 176 Highway.node[2].prot leaderDelay ETV
vector 177 Highway.node[2].prot leaderDelayId ETV
vector 178 Highway.node[3].prot leaderDelay ETV
vector 179 Highway.node[3].prot leaderDelayId ETV
vector 180 Highway.node[4].prot leaderDelay ETV
vector 181 Highway.node[4].prot leaderDelayId ETV
vector 182 Highway.node[5].prot leaderDelay ETV
vector 183 Highway.node[5].prot leaderDelayId ETV
vector 184 Highway.node[6].prot leaderDelay ETV
vector 185 Highway.node[6].prot leaderDelayId ETV
vector 186 Highway.node[7].prot leaderDelay ETV
vector 187 Highway.node[7].prot leaderDelayId ETV
vector 188 Highway.node[0].prot nodeId ETV
vector 189 Highway.node[0].prot busyTime ETV
vector 190 Highway.node[0].prot collisions ETV
vector 191 Highway.node[1].prot nodeId ETV
vector 192 Highway.node[1].prot busyTime ETV
vector 193 Highway.node[1].prot collisions ETV
vector 194 Highway.node[2].prot nodeId ETV
vector 195 Highway.node[2].prot busyTime ETV
vector 196 Highway.node[2].prot collisions ETV
vector 197 Highway.node[3].prot nodeId ETV
vector 198 Highway.node[3].prot busyTime ETV
vector 199 Highway.node[3].prot collisions ETV
vector 200 Highway.node[4].prot nodeId ETV
vector 201 Highway.node[4].prot busyTime ETV
vector 202 Highway.node[4].prot collisions ETV
vector 203 Highway.node[5].prot nodeId ETV
vector 204 Highway.node[5].prot busyTime ETV
vector 205 Highway.node[5].prot collisions ETV
vector 206 Highway.node[6].prot nodeId ETV
vector 207 Highway.node[6].prot busyTime ETV
vector 208 Highway.node[6].prot collisions ETV
vector 209 Highway.node[7].prot nodeId ETV
vector 210 Highway.node[7].prot busyTime ETV
vector 211 Highway.node[7].prot collisions ETV
vector 212 Highway.node[8].prot nodeId ETV
vector 213 Highway.node[8].prot busyTime ETV
vector 214 Highway.node[8].prot collisions ETV
vector 215 Highway.node[9].prot nodeId ETV
vector 216 Highway.node[9].prot busyTime ETV
vector 217 Highway.node[9].prot collisions ETV
vector 218 Highway.node[10].prot nodeId ETV
vector 219 Highway.node[10].prot busyTime ETV
vector 220 Highway.node[10].prot collisions ETV
vector 221 Highway.node[11].prot nodeId ETV
vector 222 Highway.node[11].prot busyTime ETV
vector 223 Highway.node[11].prot collisions ETV
vector 224 Highway.node[12].prot nodeId ETV
vector 225 Highway.node[12].prot busyTime ETV
vector 226 Highway.node[12].prot collisions ETV
vector 227 Highway.node[13].prot nodeId ETV
vector 228 Highway.node[13].prot busyTime ETV
vector 229 Highway.node[13].prot collisions ETV
vector 230 Highway.node[14].prot nodeId ETV
vector 231 Highway.node[14].prot busyTime ETV
vector 232 Highway.node[14].prot collisions ETV
vector 233 Highway.node[15].prot nodeId ETV
vector 234 Highway.node[15].prot busyTime ETV
vector 235 Highway.node[15].prot collisions ETV
0	16901 18176 113 2094712 1.11 99.91 989 -1 -1 -989 989
1	35077 17187 113 2094712 1.11 99.91 989 0 0 0 0
2	52264 17187 113 2094712 1.11 99.91 989 0 0 0 0
3	69451 19775 113 2094712 1.11 99.91 989 -0.00283113 0.000125957 -0.043966303784312 9.6812896349407e-05
4	89226 27155 113 2094712 1.11 99.91 989 -0.00437036 0.00019576 -0.042459310034081 0.00013890441444735
5	116381 23117 113 2094712 1.11 99.91 989 30.5554 30.56 30219.5304 923377.16656332
6	139498 23024 113 2094712 1.11 99.91 989 115.23 3134.13 1606809.514 3363195646.9552
7	162522 22132 113 2094712 1.11 99.91 989 242.45 242.45 239783.05 58135400.472499
8	184654 23032 114 2094713 1.11 99.91 989 1.99882 9.99999 8374.25731 78354.469581716
9	207686 25948 114 2094713 1.11 99.91 989 -0.000570904 0.63704 79.99985059172 33.708779340209
10	233634 18176 114 2094713 1.11 99.91 989 1 1 989 989
11	251810 27398 114 2094713 1.11 99.91 989 -0.242244 0.0514774 -0.038794599991001 1.3481482025094
12	279208 27420 114 2094713 1.11 99.91 989 -0.31892 0.0519004 0.100002395298 1.5744009251472
13	306628 24039 114 2094713 1.11 99.91 989 29.9186 30.56 30139.5314 918522.04037967
14	330667 24008 114 2094713 1.11 99.91 989 109.23 3120.13 1594479.3 3319710567.2295
15	354675 23121 114 2094713 1.11 99.91 989 242.45 242.45 239783.05 58135400.472499
16	377796 23909 115 2094714 1.11 99.91 989 1.99997 9.98066 6577.45774 53935.931183027
17	401705 26060 115 2094714 1.11 99.91 989 -1.69512e-05 0.236862 79.807624990711 13.200163014492
18	427765 19165 115 2094714 1.11 99.91 989 10 10 9890 98900
19	446930 26575 115 2094714 1.11 99.91 989 -0.538103 0.0947756 -0.09037128829602 11.636031021251
20	473505 26591 115 2094714 1.11 99.91 989 -0.622516 0.0948887 0.051250043440003 12.485863007642
21	500096 24000 115 2094714 1.11 99.91 989 27.8189 30.56 29419.9839 876058.05247933
22	524096 23998 115 2094714 1.11 99.91 989 55.2304 2994.17 1492498.6479 2959678716.0246
23	548094 23121 115 2094714 1.11 99.91 989 242.45 242.45 239783.05 58135400.472499
24	571215 23935 116 2094715 1.11 99.91 989 1.99993 9.96961 6377.74108 51325.608705055
25	595150 26037 116 2094715 1.11 99.91 989 -0.000134273 0.22596 79.697678860732 12.61667274122
26	621187 19165 116 2094715 1.11 99.91 989 11 11 10879 119669
27	640352 26503 116 2094715 1.11 99.91 989 -0.537426 0.0911858 -0.12202165947099 11.760399417803
28	666855 26506 116 2094715 1.11 99.91 989 -0.624588 0.0912724 0.021223370220001 12.661326543669
29	693361 23992 116 2094715 1.11 99.91 989 27.7439 30.56 29340.2878 871400.55103016
30	717353 23950 116 2094715 1.11 99.91 989 49.2304 2980.2 1482164.9449 2923455650.5097
31	741303 23121 116 2094715 1.11 99.91 989 242.45 242.45 239783.05 58135400.472499
32	764424 23907 117 2094716 1.11 99.91 989 1.98716 9.95361 6177.35315 48726.926626325
33	788331 26011 117 2094716 1.11 99.91 989 -0.00662077 0.215989 79.538472362103 12.091215495969
34	814342 19165 117 2094716 1.11 99.91 989 12 12 11868 142416
35	833507 26474 117 2094716 1.11 99.91 989 -0.539849 0.0877269 -0.16843154499103 11.895935697152
36	859981 26468 117 2094716 1.11 99.91 989 -0.630883 0.0877659 -0.022777581329984 12.836207120427
37	886449 24014 117 2094716 1.11 99.91 989 27.6803 30.56 29260.7484 866756.55824378
38	910463 24001 117 2094716 1.11 99.91 989 43.2304 2966.25 1472031.312 2888044619.2202
39	934464 23121 117 2094716 1.11 99.91 989 242.45 242.45 239783.05 58135400.472499
40	957585 23839 118 2094717 1.11 99.91 989 1.99045 9.93141 5980.50983 46163.661253432
41	981424 25991 118 2094717 1.11 99.91 989 -0.00472438 0.207163 79.317462887132 11.597559500283
42	1007415 19165 118 2094717 1.11 99.91 989 13 13 12857 167141
43	1026580 26436 118 2094717 1.11 99.91 989 -0.540814 0.0844372 -0.23447335328201 11.969129376776
44	1053016 26457 118 2094717 1.11 99.91 989 -0.630009 0.0844797 -0.085778298869998 12.861550436835
45	1079473 23995 118 2094717 1.11 99.91 989 27.6273 30.56 29181.4321 862128.44297045
46	1103468 23983 118 2094717 1.11 99.91 989 37.2304 2952.32 1462094.9047 2853457493.7347
47	1127451 23121 118 2094717 1.11 99.91 989 242.45 242.45 239783.05 58135400.472499
48	1150572 23847 119 2094718 1.11 99.91 989 1.99959 9.90143 5784.61638 43627.827301984
49	1174419 25994 119 2094718 1.11 99.91 989 -0.000456886 0.199439 79.018907615271 11.166605171713
50	1200413 19165 119 2094718 1.11 99.91 989 14 14 13846 193844
51	1219578 26412 119 2094718 1.11 99.91 989 -0.540316 0.0813936 -0.32573647898201 11.987889263089
52	1245990 26424 119 2094718 1.11 99.91 989 -0.626849 0.0814515 -0.17321959859659 12.847886007283
53	1272414 24007 119 2094718 1.11 99.91 989 27.5834 30.56 29102.4131 857520.08643233
54	1296421 24009 119 2094718 1.11 99.91 989 31.2304 2938.42 1452354.2666 2819702972.6132
55	1320430 23121 119 2094718 1.11 99.91 989 242.45 242.45 239783.05 58135400.472499
56	1343551 23871 120 2094719 1.11 99.91 989 1.99998 9.86181 5589.97574 41123.442679536
57	1367422 25959 120 2094719 1.11 99.91 989 -9.71887e-06 0.192513 78.624264100948 10.777805056918
58	1393381 19165 120 2094719 1.11 99.91 989 15 15 14835 222525
59	1412546 26376 120 2094719 1.11 99.91 989 -0.539587 0.07858 -0.448479814654 11.979321632262
60	1438922 26405 120 2094719 1.11 99.91 989 -0.625783 0.0786415 -0.29108848854301 12.818274671362
61	1465327 23992 120 2094719 1.11 99.91 989 27.547 30.56 29023.7888 852937.20237872
62	1489319 24003 120 2094719 1.11 99.91 989 25.2304 2924.56 1442808.48 2786791200.9563
63	1513322 23121 120 2094719 1.11 99.91 989 242.45 242.45 239783.05 58135400.472499
64	1536443 23982 121 2094720 1.11 99.91 989 1.99967 9.99988 8175.73495 75521.104049479
65	1560425 26795 121 2094720 1.11 99.91 989 -6.53874e-05 0.503558 79.998802552216 27.235174228578
66	1587220 18176 121 2094720 1.11 99.91 989 2 2 1978 3956
67	1605396 27275 121 2094720 1.11 99.91 989 -0.376043 0.0795856 -0.038930570569995 3.6516223803793
68	1632671 27275 121 2094720 1.11 99.91 989 -0.478934 0.0800966 0.099867637175 4.2005490338175
69	1659946 24033 121 2094720 1.11 99.91 989 29.4364 30.56 30059.5337 913719.18403324
70	1683979 24011 121 2094720 1.11 99.91 989 103.23 3106.13 1582347.581 3276875436.2441
71	1707990 23121 121 2094720 1.11 99.91 989 242.45 242.45 239783.05 58135400.472499
72	1731111 23973 122 2094721 1.11 99.91 989 1.99962 9.9997 7974.93407 72719.58203627
73	1755084 26689 122 2094721 1.11 99.91 989 -0.000137834 0.425395 79.99698316198 23.238913035367
74	1781773 18176 122 2094721 1.11 99.91 989 3 3 2967 8901
75	1799949 27154 122 2094721 1.11 99.91 989 -0.450002 0.0949853 -0.039104232759999 5.7980295940561
76	1827103 27158 122 2094721 1.11 99.91 989 -0.559403 0.0954183 0.099690971159986 6.5589466100817
77	1854261 24023 122 2094721 1.11 99.91 989 29.0598 30.56 29979.535 908952.44028601
78	1878284 24000 122 2094721 1.11 99.91 989 97.2304 3092.13 1570416.5594 3234709423.8534
79	1902284 23121 122 2094721 1.11 99.91 989 242.45 242.45 239783.05 58135400.472499
80	1925405 23964 123 2094722 1.11 99.91 989 1.99975 9.99956 7775.77091 69972.465608577
81	1949369 26568 123 2094722 1.11 99.91 989 -0.000215623 0.372497 79.99559061543 20.493646062518
82	1975937 18176 123 2094722 1.11 99.91 989 4 4 3956 15824
83	1994113 27013 123 2094722 1.11 99.91 989 -0.492115 0.102846 -0.039412991703985 7.5603751722795
84	2021126 27036 123 2094722 1.11 99.91 989 -0.597546 0.103245 0.099428069230994 8.3883143123462
85	2048162 24005 123 2094722 1.11 99.91 989 28.7582 30.56 29899.5381 904211.79291117
86	2072167 23992 123 2094722 1.11 99.91 989 91.2304 3078.13 1558684.8932 3193228756.7804
87	2096159 23121 123 2094722 1.11 99.91 989 242.45 242.45 239783.05 58135400.472499
88	2119280 23962 124 2094723 1.11 99.91 989 1.9968 9.99906 7573.01233 67228.398233211
89	2143242 26466 124 2094723 1.11 99.91 989 -0.00489272 0.336297 79.99064099929 18.603776786104
90	2169708 18176 124 2094723 1.11 99.91 989 5 5 4945 24725
91	2187884 26917 124 2094723 1.11 99.91 989 -0.515829 0.106088 -0.040817195237998 8.9227533816191
92	2214801 26906 124 2094723 1.11 99.91 989 -0.618884 0.106313 0.098046100168994 9.8328860752006
93	2241707 23996 124 2094723 1.11 99.91 989 28.5133 30.56 29819.55 899490.82975766
94	2265703 23992 124 2094723 1.11 99.91 989 85.2304 3064.13 1547155.805 3152453270.5616
95	2289695 23121 124 2094723 1.11 99.91 989 242.45 242.45 239783.05 58135400.472499
96	2312816 23945 125 2094724 1.11 99.91 989 1.99984 9.99801 7375.48912 64543.490999134
97	2336761 26335 125 2094724 1.11 99.91 989 -3.28331e-05 0.306763 79.980277607726 16.950200971899
98	2363096 18176 125 2094724 1.11 99.91 989 6 6 5934 35604
99	2381272 26803 125 2094724 1.11 99.91 989 -0.525788 0.10615 -0.043333037330007 9.8598628654458
100	2408075 27827 125 2094724 1.11 99.91 989 -0.624763 0.106395 0.095754316872006 10.742206361311
101	2435902 24985 125 2094724 1.11 99.91 989 28.317 30.56 29739.5685 894783.43658121
102	2460887 24964 125 2094724 1.11 99.91 989 79.2304 3050.13 1535824.2746 3112393953.2105
103	2485851 24110 125 2094724 1.11 99.91 989 242.45 242.45 239783.05 58135400.472499
104	2509961 24947 126 2094725 1.11 99.91 989 1.99806 9.99617 7175.63497 61864.901703148
105	2534908 27260 126 2094725 1.11 99.91 989 -0.00245141 0.283232 79.961894678293 15.740414065467
106	2562168 19165 126 2094725 1.11 99.91 989 7 7 6923 48461
107	2581333 27724 126 2094725 1.11 99.91 989 -0.533822 0.104434 -0.048043139270018 10.590705795104
108	2609057 27737 126 2094725 1.11 99.91 989 -0.626385 0.104639 0.091305433130019 11.458838897928
109	2636794 25002 126 2094725 1.11 99.91 989 28.1539 30.56 29659.6053 890088.12338797
110	2661796 24994 126 2094725 1.11 99.91 989 73.2304 3036.14 1524692.7419 3073071083.841
111	2686790 24110 126 2094725 1.11 99.91 989 242.45 242.45 239783.05 58135400.472499
112	2710900 24958 127 2094726 1.11 99.91 989 1.9912 9.99308 6973.11689 59189.633669737
113	2735858 27179 127 2094726 1.11 99.91 989 -0.00618934 0.265738 79.931228415111 14.827964270776
114	2763037 19165 127 2094726 1.11 99.91 989 8 8 7912 63296
115	2782202 27675 127 2094726 1.11 99.91 989 -0.538168 0.101731 -0.056121528499996 11.118481151718
116	2809877 27698 127 2094726 1.11 99.91 989 -0.625871 0.101941 0.083744559620023 11.942804700428
117	2837575 24982 127 2094726 1.11 99.91 989 28.0189 30.56 29579.6762 885403.07181556
118	2862557 24988 127 2094726 1.11 99.91 989 67.2304 3022.14 1513763.6008 3034502752.7137
119	2887545 24110 127 2094726 1.11 99.91 989 242.45 242.45 239783.05 58135400.472499
120	2911655 24957 128 2094727 1.11 99.91 989 1.99995 9.98817 6775.55306 56556.373249606
121	2936612 27088 128 2094727 1.11 99.91 989 -1.82501e-05 0.250272 79.882342806545 13.940946380393
122	2963700 19165 128 2094727 1.11 99.91 989 9 9 8901 80109
123	2982865 27622 128 2094727 1.11 99.91 989 -0.537785 0.0983827 -0.069457693020995 11.421660726553
124	3010487 27650 128 2094727 1.11 99.91 989 -0.626099 0.0985001 0.071099956660003 12.302438947829
125	3038137 24997 128 2094727 1.11 99.91 989 27.9093 30.56 29499.7932 880726.00968688
126	3063134 24989 128 2094727 1.11 99.91 989 61.2304 3008.15 1503032.0309 2996699719.0087
127	3088123 24110 128 2094727 1.11 99.91 989 242.45 242.45 239783.05 58135400.472499
128	3112233 41660 2290 2094783 1.220812021399 99.920814250596 988 0.099991182019 0.100009281523 98.799995230582 9.8799990852192
129	3153893 28922 2290 2094783 1.220812021399 99.920814250596 988 2 2 1976 3952
130	3182815 41639 2411 2094904 1.22126118151 99.921198624036 988 0.099902001349 0.100099606329 98.799930443911 9.8799878415209
131	3224454 29896 2411 2094904 1.22126118151 99.921198624036 988 10 10 9880 98800
132	3254350 41687 2547 2095034 1.229315301593 99.929317904205 988 0.099991256292 0.100008662932 98.800008603997 9.8800017601737
133	3296037 28944 2547 2095034 1.229315301593 99.929317904205 988 4 4 3952 15808
134	3324981 41643 2678 2095165 1.230765521745 99.930768416473 988 0.099990400821 0.100008662946 98.800008896113 9.8800018187164
135	3366624 29904 2678 2095165 1.230765521745 99.930768416473 988 15 15 14820 222300
136	3396528 41663 2808 2095295 1.235855681856 99.935858789561 988 0.099990891831 0.100008662738 98.79999610909 9.8799992613125
137	3438191 28930 2808 2095295 1.235855681856 99.935858789561 988 7 7 6916 48412
138	3467121 41663 2938 2095425 1.23791670187 99.937919836259 988 0.09999089184 0.100008662951 98.800009135774 9.8800018668592
139	3508784 28923 2938 2095425 1.23791670187 99.937919836259 988 6 6 5928 35568
140	3537707 41646 3063 2095556 1.244332801939 99.944323069514 988 0.099990401705 0.100009281523 98.79999626896 9.8799992931145
141	3579353 29898 3063 2095556 1.244332801939 99.944323069514 988 11 11 10868 119548
142	3609251 41650 3199 2095686 1.24640696205 99.946410443054 988 0.099991119944 0.100008662742 98.799996482389 9.8799993356271
143	3650901 28914 3199 2095686 1.24640696205 99.946410443054 988 3 3 2964 8892
144	3679815 41665 3330 2095817 1.252212182202 99.952202955782 988 0.099990402661 0.100009281523 98.799996774965 9.8799993942044
145	3721480 29927 3330 2095817 1.252212182202 99.952202955782 988 14 14 13832 193648
146	3751407 41679 3460 2095947 1.256717282271 99.956721188979 988 0.099991301885 0.100008662754 98.799996908093 9.8799994205341
147	3793086 28929 3460 2095947 1.256717282271 99.956721188979 988 9 9 8892 80028
148	3822015 41637 3722 2096209 1.27801248241 99.978016653397 988 0.099991120622 0.10000866278 98.799997172372 9.8799994736219
149	3863652 29905 3722 2096209 1.27801248241 99.978016653397 988 13 13 12844 166972
150	3893557 41678 3854 2096341 1.291838642521 99.99184302681 988 0.099991120718 0.100008662782 98.799997385674 9.8799995161671
151	3935235 28935 3854 2096341 1.291838642521 99.99184302681 988 5 5 4940 24700
152	3964170 41672 3984 2096471 1.293665782618 99.993670353304 988 0.099991120841 0.100008662787 98.799997572071 9.8799995535614
153	4005842 29920 3984 2096471 1.293665782618 99.993670353304 988 12 12 11856 142272
154	4035762 41617 4115 2094496 1.306165862673 99.906174877007 987 0.099990890796 0.10000866293 98.700002015719 9.8700004428159
155	4077379 28889 4115 2094496 1.306165862673 99.906174877007 987 8 8 7896 63168
156	4106268 41620 4239 2094626 1.30876000277 99.908756203897 987 0.099990890834 0.100008662717 98.700002202512 9.8700004798372
157	4147888 28901 4239 2094626 1.30876000277 99.908756203897 987 1 1 987 987
158	4176789 41620 4239 2094626 1.30876000277 99.908756203897 987 0.099990890834 0.100008662717 98.700002202512 9.8700004798372
159	4218409 28901 4239 2094626 1.30876000277 99.908756203897 987 1 1 987 987
160	4247310 41601 4245 2094632 1.308760022784 99.908756250596 987 0.099990890836 0.100008662717 98.700002229197 9.8700004851742
161	4288911 28879 4245 2094632 1.308760022784 99.908756250596 987 2 2 1974 3948
162	4317790 41648 4251 2094638 1.308760042797 99.908756297293 987 0.099990890841 0.100008662717 98.70000225588 9.8700004905107
163	4359438 28909 4251 2094638 1.308760042797 99.908756297293 987 3 3 2961 8883
164	4388347 41616 4257 2094644 1.308760062811 99.908756343991 987 0.099990890848 0.100008662717 98.700002282565 9.8700004958477
165	4429963 28902 4257 2094644 1.308760062811 99.908756343991 987 4 4 3948 15792
166	4458865 41611 4263 2094650 1.308760082825 99.908756390687 987 0.09999089086 0.100008662717 98.700002309247 9.8700005011841
167	4500476 28888 4263 2094650 1.308760082825 99.908756390687 987 5 5 4935 24675
168	4529364 41607 4269 2094656 1.308760102839 99.908756437379 987 0.099990890876 0.100008662717 98.700002335925 9.8700005065197
169	4570971 28892 4269 2094656 1.308760102839 99.908756437379 987 6 6 5922 35532
170	4599863 41638 4275 2094662 1.308760122853 99.908756484065 987 0.099990890899 0.100008662717 98.700002362597 9.8700005118541
171	4641501 28896 4275 2094662 1.308760122853 99.908756484065 987 7 7 6909 48363
172	4670397 41619 4281 2094668 1.308760142867 99.908756530741 987 0.099990890927 0.100008662717 98.700002389259 9.8700005171865
173	4712016 28890 4281 2094668 1.308760142867 99.908756530741 987 8 8 7896 63168
174	4740906 41624 4287 2094674 1.308760162881 99.908756577401 987 0.099990890963 0.100008662718 98.700002415905 9.8700005225157
175	4782530 28896 4287 2094674 1.308760162881 99.908756577401 987 9 9 8883 79947
176	4811426 41609 4293 2094680 1.308760182894 99.908756624035 987 0.099990891004 0.100008662719 98.700002442526 9.8700005278399
177	4853035 29877 4293 2094680 1.308760182894 99.908756624035 987 10 10 9870 98700
178	4882912 41607 4299 2094686 1.308760202908 99.908756670633 987 0.099990891052 0.10000866272 98.70000246911 9.8700005331567
179	4924519 29882 4299 2094686 1.308760202908 99.908756670633 987 11 11 10857 119427
180	4954401 41660 4305 2094692 1.308760222922 99.908756717177 987 0.099990891105 0.100008662722 98.70000249564 9.8700005384627
181	4996061 29909 4305 2094692 1.308760222922 99.908756717177 987 12 12 11844 142128
182	5025970 41634 4311 2094698 1.308760242936 99.908756763647 987 0.099990891162 0.100008662724 98.700002522096 9.8700005437539
183	5067604 29881 4311 2094698 1.308760242936 99.908756763647 987 13 13 12831 166803
184	5097485 41599 4317 2094704 1.30876026295 99.908756810017 987 0.099990891222 0.100008662727 98.700002548452 9.8700005490251
185	5139084 29871 4317 2094704 1.30876026295 99.908756810017 987 14 14 13818 193452
186	5168955 41623 4323 2094710 1.308760282964 99.908756856255 987 0.099990891283 0.100008662731 98.700002574676 9.8700005542699
187	5210578 29887 4323 2094710 1.308760282964 99.908756856255 987 15 15 14805 222075
188	5240465 1625 18806 2096557 2 100 99 0 0 0 0
189	5242090 2235 18806 2096557 2 100 99 0.044312 0.050074 4.939517 0.246484537149
190	5244325 1625 18806 2096557 2 100 99 0 0 0 0
191	5245950 1625 18807 2096558 2 100 99 1 1 99 99
192	5247575 2241 18807 2096558 2 100 99 0.044313 0.050075092734 4.939102092734 0.24644298699732
193	5249816 1625 18807 2096558 2 100 99 0 0 0 0
194	5251441 1724 18808 2096559 2 100 99 10 10 990 9900
195	5253165 2241 18808 2096559 2 100 99 0.044313 0.050075932256 4.939102932256 0.24644307107631
196	5255406 1625 18808 2096559 2 100 99 0 0 0 0
197	5257031 1724 18809 2096560 2 100 99 11 11 1089 11979
198	5258755 2239 18809 2096560 2 100 99 0.044313 0.0500760256 4.9391030256 0.24644308042489
199	5260994 1625 18809 2096560 2 100 99 0 0 0 0
200	5262619 1724 18810 2096561 2 100 99 12 12 1188 14256
201	5264343 2240 18810 2096561 2 100 99 0.044313 0.05007611894 4.93910311894 0.24644308977309
202	5266583 1625 18810 2096561 2 100 99 0 0 0 0
203	5268208 1724 18811 2096562 2 100 99 13 13 1287 16731
204	5269932 2241 18811 2096562 2 100 99 0.044313 0.050076212274 4.939103212274 0.24644309912071
205	5272173 1625 18811 2096562 2 100 99 0 0 0 0
206	5273798 1724 18812 2096563 2 100 99 14 14 1386 19404
207	5275522 2240 18812 2096563 2 100 99 0.044313 0.05007630562 4.93910330562 0.24644310846955
208	5277762 1625 18812 2096563 2 100 99 0 0 0 0
209	5279387 1724 18813 2096564 2 100 99 15 15 1485 22275
210	5281111 2235 18813 2096564 2 100 99 0.044313 0.050042 4.939069 0.246439673849
211	5283346 1625 18813 2096564 2 100 99 0 0 0 0
212	5284971 1625 18814 2096565 2 100 99 2 2 198 396
213	5286596 2241 18814 2096565 2 100 99 0.044313 0.050075185864 4.939102185864 0.24644299632431
214	5288837 1625 18814 2096565 2 100 99 0 0 0 0
215	5290462 1625 18815 2096566 2 100 99 3 3 297 891
216	5292087 2241 18815 2096566 2 100 99 0.044313 0.050075279092 4.939102279092 0.24644300566114
217	5294328 1625 18815 2096566 2 100 99 0 0 0 0
218	5295953 1625 18816 2096567 2 100 99 4 4 396 1584
219	5297578 2241 18816 2096567 2 100 99 0.044313 0.050075372366 4.939102372366 0.24644301500259
220	5299819 1625 18816 2096567 2 100 99 0 0 0 0
221	5301444 1625 18817 2096568 2 100 99 5 5 495 2475
222	5303069 2241 18817 2096568 2 100 99 0.044313 0.050075465668 4.939102465668 0.24644302434687
223	5305310 1625 18817 2096568 2 100 99 0 0 0 0
224	5306935 1625 18818 2096569 2 100 99 6 6 594 3564
225	5308560 2241 18818 2096569 2 100 99 0.044313 0.050075558966 4.939102558966 0.24644303369076
226	5310801 1625 18818 2096569 2 100 99 0 0 0 0
227	5312426 1625 18819 2096570 2 100 99 7 7 693 4851
228	5314051 2241 18819 2096570 2 100 99 0.044312 0.050075652278 4.939101652278 0.24644295441107
229	5316292 1625 18819 2096570 2 100 99 0 0 0 0
230	5317917 1625 18820 2096571 2 100 99 8 8 792 6336
231	5319542 2239 18820 2096571 2 100 99 0.044313 0.0500757456 4.9391027456 0.2464430523824
232	5321781 1625 18820 2096571 2 100 99 0 0 0 0
233	5323406 1625 18821 2096572 2 100 99 9 9 891 8019
234	5325031 2241 18821 2096572 2 100 99 0.044313 0.050075838928 4.939102838928 0.24644306172934
235	5327272 1625 18821 2096572 2 100 99 0 0 0 0

