version 3
run BreakRanksNoGui-91-20240710-13:39:45-257646
attr configname BreakRanksNoGui
attr datetime 20240710-13:39:45
attr datetimef 20240710-133945
attr experiment BreakRanksNoGui
attr inifile omnetpp.ini
attr iterationvars "$nCars=2, $platoonSize=2, $nLanes=1, $ploegH=0.5, $controller=1, $headway=0.1, $leaderHeadway=1.2, $leaderSpeed=110, $breakRanksSafetyDistance=3, $minSpeed=100, $maxSpeed=120, $beaconInterval=0.1, $priority=4, $packetSize=200, $sController=\"CACC\", $0=2, $1=0"
attr iterationvarsd nCars=2/platoonSize=2/nLanes=1/ploegH=0.5/controller=1/headway=0.1/leaderHeadway=1.2/leaderSpeed=110/breakRanksSafetyDistance=3/minSpeed=100/maxSpeed=120/beaconInterval=0.1/priority=4/packetSize=200/sController=CACC/2/0
attr iterationvarsf nCars=2,platoonSize=2,nLanes=1,ploegH=0.5,controller=1,headway=0.1,leaderHeadway=1.2,leaderSpeed=110,breakRanksSafetyDistance=3,minSpeed=100,maxSpeed=120,beaconInterval=0.1,priority=4,packetSize=200,sController=CACC,2,0-
attr measurement "$nCars=2, $platoonSize=2, $nLanes=1, $ploegH=0.5, $controller=1, $headway=0.1, $leaderHeadway=1.2, $leaderSpeed=110, $breakRanksSafetyDistance=3, $minSpeed=100, $maxSpeed=120, $beaconInterval=0.1, $priority=4, $packetSize=200, $sController=\"CACC\", $0=2, $1=0"
attr network Highway
attr processid 257646
attr repetition 1
attr replication #1
attr resultdir results
attr runnumber 91
attr seedset 1
itervar beaconInterval 0.1
itervar breakRanksSafetyDistance 3
itervar controller 1
itervar headway 0.1
itervar leaderHeadway 1.2
itervar leaderSpeed 110
itervar maxSpeed 120
itervar minSpeed 100
itervar nCars 2
itervar nLanes 1
itervar packetSize 200
itervar platoonSize 2
itervar ploegH 0.5
itervar priority 4
itervar sController "\"CACC\""
config image-path ../../../veins/images
config repeat 10
config extends BreakRanks
config *.manager.command "\"sumo\""
config *.manager.ignoreGuiCommands true
config output-vector-file "results/BreakRanks_1_0.1_110_3_2 /result_1.vec"
config output-scalar-file "results/BreakRanks_1_0.1_110_3_2 /result_1.sca"
config extends Platooning
config *.node[*].scenario_type "\"BreakRanksScenario\""
config *.manager.command "\"sumo-gui\""
config *.node[*].scenario_type "\"SimpleScenario\""
config cmdenv-express-mode true
config cmdenv-autoflush true
config cmdenv-status-frequency 15s
config num-rngs 6
config network Highway
config debug-on-errors true
config print-undisposed true
config *.playgroundSizeX 65000m
config *.playgroundSizeY 25000m
config *.playgroundSizeZ 50m
config sim-time-limit "100 s"
config *.annotations.draw false
config *.obstacles.debug false
config *.world.useTorus false
config *.world.use2D false
config *.manager.updateInterval 0.01s
config *.manager.host "\"localhost\""
config *.manager.moduleType "\"org.car2x.plexe.PlatoonCar\""
config *.manager.moduleName "\"node\""
config *.manager.moduleDisplayString "\"\""
config *.manager.autoShutdown true
config *.manager.margin 25
config *.connectionManager.sendDirect true
config *.connectionManager.maxInterfDist 2600m
config *.connectionManager.drawMaxIntfDist false
config *.**.nic.mac1609_4.useServiceChannel false
config *.**.nic.mac1609_4.txPower 100mW
config *.**.nic.mac1609_4.bitrate 6Mbps
config *.**.nic.mac1609_4.useAcks true
config *.**.nic.mac1609_4.ackErrorRate 0.0
config *.**.nic.mac1609_4.frameErrorRate 0.0
config *.**.nic.phy80211p.minPowerLevel -94dBm
config *.**.nic.phy80211p.maxTXPower 100mW
config *.**.nic.phy80211p.useNoiseFloor true
config *.**.nic.phy80211p.noiseFloor -95dBm
config *.**.nic.phy80211p.decider "xmldoc(\"config.xml\")"
config *.**.nic.phy80211p.analogueModels "xmldoc(\"config.xml\")"
config *.**.nic.phy80211p.usePropagationDelay true
config *.node[*].mobility.x 0
config *.node[*].mobility.y 0
config *.node[*].mobility.z 1.895
config seed-set 1
config **.seed 1
config *.node[*].prot.rng-0 2
config *.node[*].appl.rng-0 3
config *.node[*].scenario.rng-0 4
config **.traffic.rng-0 5
config *.manager.configFile "\"./sumocfg/freeway.sumo.cfg\""
config *.manager.launchConfig "xmldoc(\"./sumocfg/freeway.launchd.xml\")"
config **.numberOfCars 2
config **.numberOfCarsPerPlatoon 2
config **.numberOfLanes 1
config *.node[*].helper_type "\"PositionHelper\""
config *.node[*].scenario.caccC1 0.5
config *.node[*].scenario.caccXi 1
config *.node[*].scenario.caccOmegaN "0.2 Hz"
config *.node[*].scenario.caccSpacing "2 m"
config *.node[*].scenario.engineTau "0.5 s"
config *.node[*].scenario.ploegH 0.5s
config *.node[*].scenario.ploegKp 0.2
config *.node[*].scenario.ploegKd 0.7
config *.node[*].scenario.useRealisticEngine false
config *.node[*].scenario.useControllerAcceleration true
config *.node[*].scenario.nLanes 1
config **.numericController 1
config **.headway 0.1s
config *.node[*].scenario.accHeadway 0.1s
config *.node[*].scenario.leaderHeadway 1.2s
config *.node[*].scenario.leaderSpeed 110kmph
config *.node[*].appl_type "\"SimplePlatooningApp\""
config *.node[*].appl.*.scalar-recording true
config *.node[*].appl.*.vector-recording true
config *.node[0].appl.breakRanksSafetyDistance 3m
config *.node[*].appl.minSpeed 100kmph
config *.node[*].appl.maxSpeed 120kmph
config *.node[*].protocol_type "\"SimplePlatooningBeaconing\""
config *.node[*].prot.*.scalar-recording true
config *.node[*].prot.*.vector-recording true
config *.node[*].prot.beaconingInterval 0.1s
config *.node[*].prot.priority 4
config *.node[*].prot.packetSize 200
config **.traffic_type "\"PlatoonsTrafficManager\""
config **.traffic.platoonInsertTime "1 s"
config **.traffic.platoonInsertSpeed 110kmph
config **.traffic.nCars 2
config **.traffic.platoonSize 2
config **.traffic.nLanes 1
config **.traffic.platooningVType "\"vtypeauto\""
config **.traffic.controller "\"CACC\""
config **.traffic.platoonInsertDistance 2m
config **.traffic.platoonInsertHeadway 0s
config **.traffic.platoonLeaderHeadway 1.2s
config **.scalar-recording false
config **.vector-recording false

vector 0 Highway.node[0].appl distance ETV
vector 1 Highway.node[0].appl relativeSpeed ETV
vector 2 Highway.node[0].appl nodeId ETV
vector 3 Highway.node[0].appl acceleration ETV
vector 4 Highway.node[0].appl controllerAcceleration ETV
vector 5 Highway.node[0].appl speed ETV
vector 6 Highway.node[0].appl posx ETV
vector 7 Highway.node[0].appl posy ETV
vector 8 Highway.node[1].appl distance ETV
vector 9 Highway.node[1].appl relativeSpeed ETV
vector 10 Highway.node[1].appl nodeId ETV
vector 11 Highway.node[1].appl acceleration ETV
vector 12 Highway.node[1].appl controllerAcceleration ETV
vector 13 Highway.node[1].appl speed ETV
vector 14 Highway.node[1].appl posx ETV
vector 15 Highway.node[1].appl posy ETV
vector 16 Highway.node[1].prot leaderDelay ETV
vector 17 Highway.node[1].prot leaderDelayId ETV
vector 18 Highway.node[1].prot frontDelay ETV
vector 19 Highway.node[1].prot frontDelayId ETV
vector 20 Highway.node[0].prot nodeId ETV
vector 21 Highway.node[0].prot busyTime ETV
vector 22 Highway.node[0].prot collisions ETV
vector 23 Highway.node[1].prot nodeId ETV
vector 24 Highway.node[1].prot busyTime ETV
vector 25 Highway.node[1].prot collisions ETV
0	113	1.11	-1
0	161	1.21	-1
0	209	1.31	-1
0	257	1.41	-1
0	305	1.51	-1
0	353	1.61	-1
0	401	1.71	-1
0	449	1.81	-1
0	497	1.91	-1
0	547	2.01	-1
0	595	2.11	-1
0	643	2.21	-1
0	691	2.31	-1
0	739	2.41	-1
0	787	2.51	-1
0	835	2.61	-1
0	883	2.71	-1
0	931	2.81	-1
0	979	2.91	-1
0	1029	3.01	-1
0	1077	3.11	-1
0	1125	3.21	-1
0	1173	3.31	-1
0	1221	3.41	-1
0	1269	3.51	-1
0	1317	3.61	-1
0	1365	3.71	-1
0	1413	3.81	-1
0	1461	3.91	-1
0	1511	4.01	-1
0	1559	4.11	-1
0	1607	4.21	-1
0	1655	4.31	-1
0	1703	4.41	-1
0	1751	4.51	-1
0	1799	4.61	-1
0	1847	4.71	-1
0	1895	4.81	-1
0	1943	4.91	-1
0	1993	5.01	-1
0	2041	5.11	-1
0	2089	5.21	-1
0	2137	5.31	-1
0	2185	5.41	-1
0	2233	5.51	-1
0	2281	5.61	-1
0	2329	5.71	-1
0	2377	5.81	-1
0	2425	5.91	-1
0	2475	6.01	-1
0	2523	6.11	-1
0	2571	6.21	-1
0	2619	6.31	-1
0	2667	6.41	-1
0	2715	6.51	-1
0	2763	6.61	-1
0	2811	6.71	-1
0	2859	6.81	-1
0	2907	6.91	-1
0	2957	7.01	-1
0	3005	7.11	-1
0	3053	7.21	-1
0	3101	7.31	-1
0	3149	7.41	-1
0	3197	7.51	-1
0	3245	7.61	-1
0	3293	7.71	-1
0	3341	7.81	-1
0	3389	7.91	-1
0	3439	8.01	-1
0	3487	8.11	-1
0	3535	8.21	-1
0	3583	8.31	-1
0	3631	8.41	-1
0	3679	8.51	-1
0	3727	8.61	-1
0	3775	8.71	-1
0	3823	8.81	-1
0	3871	8.91	-1
0	3921	9.01	-1
0	3969	9.11	-1
0	4017	9.21	-1
0	4065	9.31	-1
0	4113	9.41	-1
0	4161	9.51	-1
0	4209	9.61	-1
0	4257	9.71	-1
0	4305	9.81	-1
0	4353	9.91	-1
0	4423	10.01	-1
0	4472	10.11	-1
0	4521	10.21	-1
0	4570	10.31	-1
0	4619	10.41	-1
0	4668	10.51	-1
0	4717	10.61	-1
0	4766	10.71	-1
0	4815	10.81	-1
0	4864	10.91	-1
0	4915	11.01	-1
0	4964	11.11	-1
0	5013	11.21	-1
0	5062	11.31	-1
0	5111	11.41	-1
0	5160	11.51	-1
0	5209	11.61	-1
0	5258	11.71	-1
0	5307	11.81	-1
0	5356	11.91	-1
0	5407	12.01	-1
0	5456	12.11	-1
0	5505	12.21	-1
0	5554	12.31	-1
0	5603	12.41	-1
0	5652	12.51	-1
0	5701	12.61	-1
0	5750	12.71	-1
0	5799	12.81	-1
0	5848	12.91	-1
0	5899	13.01	-1
0	5948	13.11	-1
0	5997	13.21	-1
0	6046	13.31	-1
0	6095	13.41	-1
0	6144	13.51	-1
0	6193	13.61	-1
0	6242	13.71	-1
0	6291	13.81	-1
0	6340	13.91	-1
0	6391	14.01	-1
0	6440	14.11	-1
0	6489	14.21	-1
0	6538	14.31	-1
0	6587	14.41	-1
0	6636	14.51	-1
0	6685	14.61	-1
0	6734	14.71	-1
0	6783	14.81	-1
0	6832	14.91	-1
0	6883	15.01	-1
0	6932	15.11	-1
0	6981	15.21	-1
0	7030	15.31	-1
0	7079	15.41	-1
0	7128	15.51	-1
0	7177	15.61	-1
0	7226	15.71	-1
0	7275	15.81	-1
0	7324	15.91	-1
0	7375	16.01	-1
0	7424	16.11	-1
0	7473	16.21	-1
0	7522	16.31	-1
0	7571	16.41	-1
0	7620	16.51	-1
0	7669	16.61	-1
0	7718	16.71	-1
0	7767	16.81	-1
0	7816	16.91	-1
0	7867	17.01	-1
0	7916	17.11	-1
0	7965	17.21	-1
0	8014	17.31	-1
0	8063	17.41	-1
0	8112	17.51	-1
0	8161	17.61	-1
0	8210	17.71	-1
0	8259	17.81	-1
0	8308	17.91	-1
0	8359	18.01	-1
0	8408	18.11	-1
0	8457	18.21	-1
0	8506	18.31	-1
0	8555	18.41	-1
0	8604	18.51	-1
0	8653	18.61	-1
0	8702	18.71	-1
0	8751	18.81	-1
0	8800	18.91	-1
0	8851	19.01	-1
0	8900	19.11	-1
0	8949	19.21	-1
0	8998	19.31	-1
0	9047	19.41	-1
0	9096	19.51	-1
0	9145	19.61	-1
0	9194	19.71	-1
0	9243	19.81	-1
0	9292	19.91	-1
0	9343	20.01	-1
0	9392	20.11	-1
0	9441	20.21	-1
0	9490	20.31	-1
0	9539	20.41	-1
0	9588	20.51	-1
0	9637	20.61	-1
0	9686	20.71	-1
0	9735	20.81	-1
0	9784	20.91	-1
0	9835	21.01	-1
0	9884	21.11	-1
0	9933	21.21	-1
0	9982	21.31	-1
0	10031	21.41	-1
0	10080	21.51	-1
0	10129	21.61	-1
0	10178	21.71	-1
0	10227	21.81	-1
0	10276	21.91	-1
0	10327	22.01	-1
0	10376	22.11	-1
0	10425	22.21	-1
0	10474	22.31	-1
0	10523	22.41	-1
0	10572	22.51	-1
0	10621	22.61	-1
0	10670	22.71	-1
0	10719	22.81	-1
0	10768	22.91	-1
0	10819	23.01	-1
0	10868	23.11	-1
0	10917	23.21	-1
0	10966	23.31	-1
0	11015	23.41	-1
0	11064	23.51	-1
0	11113	23.61	-1
0	11162	23.71	-1
0	11211	23.81	-1
0	11260	23.91	-1
0	11311	24.01	-1
0	11360	24.11	-1
0	11409	24.21	-1
0	11458	24.31	-1
0	11507	24.41	-1
0	11556	24.51	-1
0	11605	24.61	-1
0	11654	24.71	-1
0	11703	24.81	-1
0	11752	24.91	-1
0	11803	25.01	-1
0	11852	25.11	-1
0	11901	25.21	-1
0	11950	25.31	-1
0	11999	25.41	-1
0	12048	25.51	-1
0	12097	25.61	-1
0	12146	25.71	-1
0	12195	25.81	-1
0	12244	25.91	-1
0	12295	26.01	-1
0	12344	26.11	-1
0	12393	26.21	-1
0	12442	26.31	-1
0	12491	26.41	-1
0	12540	26.51	-1
0	12589	26.61	-1
0	12638	26.71	-1
0	12687	26.81	-1
0	12736	26.91	-1
0	12787	27.01	-1
0	12836	27.11	-1
0	12885	27.21	-1
0	12934	27.31	-1
0	12983	27.41	-1
0	13032	27.51	-1
0	13081	27.61	-1
0	13130	27.71	-1
0	13179	27.81	-1
0	13228	27.91	-1
0	13279	28.01	-1
0	13328	28.11	-1
0	13377	28.21	-1
0	13426	28.31	-1
0	13475	28.41	-1
0	13524	28.51	-1
0	13573	28.61	-1
0	13622	28.71	-1
0	13671	28.81	-1
0	13720	28.91	-1
0	13771	29.01	-1
0	13820	29.11	-1
0	13869	29.21	-1
0	13984	29.31	-1
0	14032	29.41	-1
0	14080	29.51	-1
0	14128	29.61	-1
0	14176	29.71	-1
0	14224	29.81	-1
0	14272	29.91	-1
0	14322	30.01	-1
0	14370	30.11	-1
0	14418	30.21	-1
0	14466	30.31	-1
0	14514	30.41	-1
0	14562	30.51	-1
0	14610	30.61	-1
0	14658	30.71	-1
0	14706	30.81	-1
0	14754	30.91	-1
0	14804	31.01	-1
0	14852	31.11	-1
0	14900	31.21	-1
0	14948	31.31	-1
0	14996	31.41	-1
0	15044	31.51	-1
0	15092	31.61	-1
0	15140	31.71	-1
0	15188	31.81	-1
0	15236	31.91	-1
0	15286	32.01	-1
0	15334	32.11	-1
0	15382	32.21	-1
0	15430	32.31	-1
0	15478	32.41	-1
0	15526	32.51	-1
0	15574	32.61	-1
0	15622	32.71	-1
0	15670	32.81	-1
0	15718	32.91	-1
0	15768	33.01	-1
0	15816	33.11	-1
0	15864	33.21	-1
0	15912	33.31	-1
0	15960	33.41	-1
0	16008	33.51	-1
0	16056	33.61	-1
0	16104	33.71	-1
0	16152	33.81	-1
0	16200	33.91	-1
0	16250	34.01	-1
0	16298	34.11	-1
0	16346	34.21	-1
0	16394	34.31	-1
0	16442	34.41	-1
0	16490	34.51	-1
0	16538	34.61	-1
0	16586	34.71	-1
0	16634	34.81	-1
0	16682	34.91	-1
0	16732	35.01	-1
0	16780	35.11	-1
0	16828	35.21	-1
0	16876	35.31	-1
0	16924	35.41	-1
0	16972	35.51	-1
0	17020	35.61	-1
0	17068	35.71	-1
0	17116	35.81	-1
0	17164	35.91	-1
0	17214	36.01	-1
0	17262	36.11	-1
0	17310	36.21	-1
0	17358	36.31	-1
0	17406	36.41	-1
0	17454	36.51	-1
0	17502	36.61	-1
0	17550	36.71	-1
0	17598	36.81	-1
0	17646	36.91	-1
0	17696	37.01	-1
0	17744	37.11	-1
0	17792	37.21	-1
0	17840	37.31	-1
0	17888	37.41	-1
0	17936	37.51	-1
0	17984	37.61	-1
0	18032	37.71	-1
0	18080	37.81	-1
0	18128	37.91	-1
0	18178	38.01	-1
0	18226	38.11	-1
0	18274	38.21	-1
0	18322	38.31	-1
0	18370	38.41	-1
0	18418	38.51	-1
0	18466	38.61	-1
0	18514	38.71	-1
0	18562	38.81	-1
0	18610	38.91	-1
0	18660	39.01	-1
0	18708	39.11	-1
0	18756	39.21	-1
0	18804	39.31	-1
0	18852	39.41	-1
0	18900	39.51	-1
0	18948	39.61	-1
0	18996	39.71	-1
0	19044	39.81	-1
0	19092	39.91	-1
0	19142	40.01	-1
0	19190	40.11	-1
0	19238	40.21	-1
0	19286	40.31	-1
0	19334	40.41	-1
0	19382	40.51	-1
0	19430	40.61	-1
0	19478	40.71	-1
0	19526	40.81	-1
0	19574	40.91	-1
0	19624	41.01	-1
0	19672	41.11	-1
0	19720	41.21	-1
0	19768	41.31	-1
0	19816	41.41	-1
0	19864	41.51	-1
0	19912	41.61	-1
0	19960	41.71	-1
0	20008	41.81	-1
0	20056	41.91	-1
0	20106	42.01	-1
0	20154	42.11	-1
0	20202	42.21	-1
0	20250	42.31	-1
0	20298	42.41	-1
0	20346	42.51	-1
0	20394	42.61	-1
0	20442	42.71	-1
0	20490	42.81	-1
0	20538	42.91	-1
0	20588	43.01	-1
0	20636	43.11	-1
0	20684	43.21	-1
0	20732	43.31	-1
0	20780	43.41	-1
0	20828	43.51	-1
0	20876	43.61	-1
0	20924	43.71	-1
0	20972	43.81	-1
0	21020	43.91	-1
0	21070	44.01	-1
0	21118	44.11	22.1152
0	21166	44.21	22.3596
0	21214	44.31	22.6041
0	21262	44.41	22.8485
0	21310	44.51	23.0929
0	21358	44.61	23.3374
0	21406	44.71	23.5818
0	21454	44.81	23.8263
0	21502	44.91	24.0707
0	21552	45.01	24.3151
0	21600	45.11	24.5596
0	21648	45.21	24.804
0	21696	45.31	25.0485
0	21744	45.41	25.2929
0	21792	45.51	25.5373
0	21840	45.61	25.7818
0	21888	45.71	26.0262
0	21936	45.81	26.2707
0	21984	45.91	26.5151
0	22034	46.01	26.7595
0	22082	46.11	27.004
0	22130	46.21	27.2484
0	22178	46.31	27.4929
0	22226	46.41	27.7373
0	22274	46.51	27.9817
0	22322	46.61	28.2262
0	22370	46.71	28.4706
0	22418	46.81	28.7151
0	22466	46.91	28.9595
0	22516	47.01	29.2039
0	22564	47.11	29.4484
0	22612	47.21	29.6928
0	22660	47.31	29.9373
0	22708	47.41	30.1817
0	22756	47.51	30.4261
0	22804	47.61	30.6706
0	22852	47.71	30.915
0	22900	47.81	31.1595
0	22948	47.91	31.4039
0	22998	48.01	31.6483
0	23046	48.11	31.8928
0	23094	48.21	32.1372
0	23142	48.31	32.3817
0	23190	48.41	32.6261
0	23238	48.51	32.8705
0	23286	48.61	33.115
0	23334	48.71	33.3594
0	23382	48.81	33.6039
0	23430	48.91	33.8483
0	23480	49.01	34.0927
0	23528	49.11	34.3372
0	23576	49.21	34.5816
0	23624	49.31	34.8261
0	23672	49.41	35.0705
0	23720	49.51	35.3149
0	23768	49.61	35.5594
0	23816	49.71	35.8038
0	23864	49.81	36.0483
0	23912	49.91	36.2927
0	23962	50.01	36.5371
0	24010	50.11	36.7816
0	24058	50.21	37.026
0	24106	50.31	37.2705
0	24154	50.41	37.5149
0	24202	50.51	37.7593
0	24250	50.61	38.0038
0	24298	50.71	38.2482
0	24346	50.81	38.4927
0	24394	50.91	38.7371
0	24444	51.01	38.9815
0	24492	51.11	39.226
0	24540	51.21	39.4704
0	24588	51.31	39.7149
0	24636	51.41	39.9593
0	24684	51.51	40.2037
0	24732	51.61	40.4482
0	24780	51.71	40.6926
0	24828	51.81	40.9371
0	24876	51.91	41.1815
0	24926	52.01	41.4259
0	24974	52.11	41.6704
0	25022	52.21	41.9148
0	25070	52.31	42.1593
0	25118	52.41	42.4037
0	25166	52.51	42.6481
0	25214	52.61	42.8926
0	25262	52.71	43.137
0	25310	52.81	43.3815
0	25358	52.91	43.6259
0	25408	53.01	43.8703
0	25456	53.11	44.1148
0	25504	53.21	44.3592
0	25552	53.31	44.6037
0	25600	53.41	44.8481
0	25648	53.51	45.0925
0	25696	53.61	45.337
0	25744	53.71	45.5814
0	25792	53.81	45.8259
0	25840	53.91	46.0703
0	25890	54.01	46.3147
0	25938	54.11	46.5592
0	25986	54.21	46.8036
0	26034	54.31	47.0481
0	26082	54.41	47.2925
0	26130	54.51	47.5369
0	26178	54.61	47.7814
0	26226	54.71	48.0258
0	26274	54.81	48.2703
0	26322	54.91	48.5147
0	26372	55.01	48.7591
0	26420	55.11	49.0036
0	26468	55.21	49.248
0	26516	55.31	49.4925
0	26564	55.41	49.7369
0	26612	55.51	49.9813
0	26660	55.61	50.2258
0	26708	55.71	50.4702
0	26756	55.81	50.7147
0	26804	55.91	50.9591
0	26854	56.01	51.2035
0	26902	56.11	51.448
0	26950	56.21	51.6924
0	26998	56.31	51.9369
0	27046	56.41	52.1813
0	27094	56.51	52.4257
0	27142	56.61	52.6702
0	27190	56.71	52.9146
0	27238	56.81	53.1591
0	27286	56.91	53.4035
0	27336	57.01	53.6479
0	27384	57.11	53.8924
0	27432	57.21	54.1368
0	27480	57.31	54.3813
0	27528	57.41	54.6257
0	27576	57.51	54.8701
0	27624	57.61	55.1146
0	27672	57.71	55.359
0	27720	57.81	55.6035
0	27768	57.91	55.8479
0	27818	58.01	56.0923
0	27866	58.11	56.3368
0	27914	58.21	56.5812
0	27962	58.31	56.8257
0	28010	58.41	57.0701
0	28058	58.51	57.3145
0	28106	58.61	57.559
0	28154	58.71	57.8034
0	28202	58.81	58.0479
0	28250	58.91	58.2923
0	28300	59.01	58.5367
0	28348	59.11	58.7812
0	28396	59.21	59.0256
0	28444	59.31	59.2701
0	28492	59.41	59.5145
0	28540	59.51	59.7589
0	28588	59.61	60.0034
0	28636	59.71	60.2478
0	28684	59.81	60.4923
0	28732	59.91	60.7367
0	28782	60.01	60.9811
0	28830	60.11	61.2256
0	28878	60.21	61.47
0	28926	60.31	61.7145
0	28974	60.41	61.9589
0	29022	60.51	62.2033
0	29070	60.61	62.4478
0	29118	60.71	62.6922
0	29166	60.81	62.9367
0	29214	60.91	63.1811
0	29264	61.01	63.4255
0	29312	61.11	63.67
0	29360	61.21	63.9144
0	29408	61.31	64.1589
0	29456	61.41	64.4033
0	29504	61.51	64.6477
0	29552	61.61	64.8922
0	29600	61.71	65.1366
0	29648	61.81	65.3811
0	29696	61.91	65.6255
0	29746	62.01	65.8699
0	29794	62.11	66.1144
0	29842	62.21	66.3588
0	29890	62.31	66.6033
0	29938	62.41	66.8477
0	29986	62.51	67.0921
0	30034	62.61	67.3366
0	30082	62.71	67.581
0	30130	62.81	67.8255
0	30178	62.91	68.0699
0	30228	63.01	68.3143
0	30276	63.11	68.5588
0	30324	63.21	68.8032
0	30372	63.31	69.0477
0	30420	63.41	69.2921
0	30468	63.51	69.5365
0	30516	63.61	69.781
0	30564	63.71	70.0254
0	30612	63.81	70.2699
0	30660	63.91	70.5143
0	30710	64.01	70.7587
0	30758	64.11	71.0032
0	30806	64.21	71.2476
0	30854	64.31	71.4921
0	30902	64.41	71.7365
0	30950	64.51	71.9809
0	30998	64.61	72.2254
0	31046	64.71	72.4698
0	31094	64.81	72.7143
0	31142	64.91	72.9587
0	31192	65.01	73.2031
0	31240	65.11	73.4476
0	31288	65.21	73.692
0	31336	65.31	73.9365
0	31384	65.41	74.1809
0	31432	65.51	74.4253
0	31480	65.61	74.6698
0	31528	65.71	74.9142
0	31576	65.81	75.1587
0	31624	65.91	75.4031
0	31674	66.01	75.6475
0	31722	66.11	75.892
0	31770	66.21	76.1364
0	31818	66.31	76.3809
0	31866	66.41	76.6253
0	31914	66.51	76.8697
0	31962	66.61	77.1142
0	32010	66.71	77.3586
0	32058	66.81	77.6031
0	32106	66.91	77.8475
0	32156	67.01	78.0919
0	32204	67.11	78.3364
0	32252	67.21	78.5808
0	32300	67.31	78.8253
0	32348	67.41	79.0697
0	32396	67.51	79.3141
0	32444	67.61	79.5586
0	32492	67.71	79.803
0	32540	67.81	80.0475
0	32588	67.91	80.2919
0	32638	68.01	80.5363
0	32686	68.11	80.7808
0	32734	68.21	81.0252
0	32782	68.31	81.2697
0	32830	68.41	81.5141
0	32878	68.51	81.7585
0	32926	68.61	82.003
0	32974	68.71	82.2474
0	33022	68.81	82.4919
0	33070	68.91	82.7363
0	33120	69.01	82.9807
0	33168	69.11	83.2252
0	33216	69.21	83.4696
0	33264	69.31	83.7141
0	33312	69.41	83.9585
0	33360	69.51	84.2029
0	33408	69.61	84.4474
0	33456	69.71	84.6918
0	33504	69.81	84.9363
0	33552	69.91	85.1807
0	33602	70.01	85.4251
0	33650	70.11	85.6696
0	33698	70.21	85.914
0	33746	70.31	86.1585
0	33794	70.41	86.4029
0	33842	70.51	86.6473
0	33890	70.61	86.8918
0	33938	70.71	87.1362
0	33986	70.81	87.3807
0	34034	70.91	87.6251
0	34084	71.01	87.8695
0	34132	71.11	88.114
0	34180	71.21	88.3584
0	34228	71.31	88.6029
0	34276	71.41	88.8473
0	34324	71.51	89.0917
0	34372	71.61	89.3362
0	34420	71.71	89.5806
0	34468	71.81	89.8251
0	34516	71.91	90.0695
0	34566	72.01	90.3139
0	34614	72.11	90.5584
0	34662	72.21	90.8028
0	34710	72.31	91.0473
0	34758	72.41	91.2917
0	34806	72.51	91.5361
0	34854	72.61	91.7806
0	34902	72.71	92.025
0	34950	72.81	92.2695
0	34998	72.91	92.5139
0	35048	73.01	92.7583
0	35096	73.11	93.0028
0	35144	73.21	93.2472
0	35192	73.31	93.4917
0	35240	73.41	93.7361
0	35288	73.51	93.9805
0	35336	73.61	94.225
0	35384	73.71	94.4694
0	35432	73.81	94.7139
0	35480	73.91	94.9583
0	35530	74.01	95.2027
0	35578	74.11	95.4472
0	35626	74.21	95.6916
0	35674	74.31	95.9361
0	35722	74.41	96.1805
0	35770	74.51	96.4249
0	35818	74.61	96.6694
0	35866	74.71	96.9138
0	35914	74.81	97.1583
0	35962	74.91	97.4027
0	36012	75.01	97.6471
0	36060	75.11	97.8916
0	36108	75.21	98.136
0	36156	75.31	98.3805
0	36204	75.41	98.6249
0	36252	75.51	98.8693
0	36300	75.61	99.1138
0	36348	75.71	99.3582
0	36396	75.81	99.6027
0	36444	75.91	99.8471
0	36494	76.01	100.092
0	36542	76.11	100.336
0	36590	76.21	100.58
0	36638	76.31	100.825
0	36686	76.41	101.069
0	36734	76.51	101.314
0	36782	76.61	101.558
0	36830	76.71	101.803
0	36878	76.81	102.047
0	36926	76.91	102.291
0	36976	77.01	102.536
0	37024	77.11	102.78
0	37072	77.21	103.025
0	37120	77.31	103.269
0	37168	77.41	103.514
0	37216	77.51	103.758
0	37264	77.61	104.003
0	37312	77.71	104.247
0	37360	77.81	104.491
0	37408	77.91	104.736
0	37458	78.01	104.98
0	37506	78.11	105.225
0	37554	78.21	105.469
0	37602	78.31	105.714
0	37650	78.41	105.958
0	37698	78.51	106.203
0	37746	78.61	106.447
0	37794	78.71	106.691
0	37842	78.81	106.936
0	37890	78.91	107.18
0	37940	79.01	107.425
0	37988	79.11	107.669
0	38036	79.21	107.914
0	38084	79.31	108.158
0	38132	79.41	108.402
0	38180	79.51	108.647
0	38228	79.61	108.891
0	38276	79.71	109.136
0	38324	79.81	109.38
0	38372	79.91	109.625
0	38422	80.01	109.869
0	38470	80.11	110.114
0	38518	80.21	110.358
0	38566	80.31	110.602
0	38614	80.41	110.847
0	38662	80.51	111.091
0	38710	80.61	111.336
0	38758	80.71	111.58
0	38806	80.81	111.825
0	38854	80.91	112.069
0	38904	81.01	112.314
0	38952	81.11	112.558
0	39000	81.21	112.802
0	39048	81.31	113.047
0	39096	81.41	113.291
0	39144	81.51	113.536
0	39192	81.61	113.78
0	39240	81.71	114.025
0	39288	81.81	114.269
0	39336	81.91	114.513
0	39386	82.01	114.758
0	39434	82.11	115.002
0	39482	82.21	115.247
0	39530	82.31	115.491
0	39578	82.41	115.736
0	39626	82.51	115.98
0	39674	82.61	116.225
0	39722	82.71	116.469
0	39770	82.81	116.713
0	39818	82.91	116.958
0	39868	83.01	117.202
0	39916	83.11	117.447
0	39964	83.21	117.691
0	40012	83.31	117.936
0	40060	83.41	118.18
0	40108	83.51	118.425
0	40156	83.61	118.669
0	40204	83.71	118.913
0	40252	83.81	119.158
0	40300	83.91	119.402
0	40350	84.01	119.647
0	40398	84.11	119.891
0	40446	84.21	120.136
0	40494	84.31	120.38
0	40542	84.41	120.624
0	40590	84.51	120.869
0	40638	84.61	121.113
0	40686	84.71	121.358
0	40734	84.81	121.602
0	40782	84.91	121.847
0	40832	85.01	122.091
0	40880	85.11	122.336
0	40928	85.21	122.58
0	40976	85.31	122.824
0	41024	85.41	123.069
0	41072	85.51	123.313
0	41120	85.61	123.558
0	41168	85.71	123.802
0	41216	85.81	124.047
0	41264	85.91	124.291
0	41314	86.01	124.536
0	41362	86.11	124.78
0	41410	86.21	125.024
0	41458	86.31	125.269
0	41506	86.41	125.513
0	41554	86.51	125.758
0	41602	86.61	126.002
0	41650	86.71	126.247
0	41698	86.81	126.491
0	41746	86.91	126.735
0	41796	87.01	126.98
0	41844	87.11	127.224
0	41892	87.21	127.469
0	41940	87.31	127.713
0	41988	87.41	127.958
0	42036	87.51	128.202
0	42084	87.61	128.447
0	42132	87.71	128.691
0	42180	87.81	128.935
0	42228	87.91	129.18
0	42278	88.01	129.424
0	42326	88.11	129.669
0	42374	88.21	129.913
0	42422	88.31	130.158
0	42470	88.41	130.402
0	42518	88.51	130.647
0	42566	88.61	130.891
0	42614	88.71	131.135
0	42662	88.81	131.38
0	42710	88.91	131.624
0	42760	89.01	131.869
0	42808	89.11	132.113
0	42856	89.21	132.358
0	42904	89.31	132.602
0	42952	89.41	132.846
0	43000	89.51	133.091
0	43048	89.61	133.335
0	43096	89.71	133.58
0	43144	89.81	133.824
0	43192	89.91	134.069
0	43242	90.01	134.313
0	43290	90.11	134.558
0	43338	90.21	134.802
0	43386	90.31	135.046
0	43434	90.41	135.291
0	43482	90.51	135.535
0	43530	90.61	135.78
0	43578	90.71	136.024
0	43626	90.81	136.269
0	43674	90.91	136.513
0	43724	91.01	136.758
0	43772	91.11	137.002
0	43820	91.21	137.246
0	43868	91.31	137.491
0	43916	91.41	137.735
0	43964	91.51	137.98
0	44012	91.61	138.224
0	44060	91.71	138.469
0	44108	91.81	138.713
0	44156	91.91	138.957
0	44206	92.01	139.202
0	44254	92.11	139.446
0	44302	92.21	139.691
0	44350	92.31	139.935
0	44398	92.41	140.18
0	44446	92.51	140.424
0	44494	92.61	140.669
0	44542	92.71	140.913
0	44590	92.81	141.157
0	44638	92.91	141.402
0	44688	93.01	141.646
0	44736	93.11	141.891
0	44784	93.21	142.135
0	44832	93.31	142.38
0	44880	93.41	142.624
0	44928	93.51	142.869
0	44976	93.61	143.113
0	45024	93.71	143.357
0	45072	93.81	143.602
0	45120	93.91	143.846
0	45170	94.01	144.091
0	45218	94.11	144.335
0	45266	94.21	144.58
0	45314	94.31	144.824
0	45362	94.41	145.068
0	45410	94.51	145.313
0	45458	94.61	145.557
0	45506	94.71	145.802
0	45554	94.81	146.046
0	45602	94.91	146.291
0	45652	95.01	146.535
0	45700	95.11	146.78
0	45748	95.21	147.024
0	45796	95.31	147.268
0	45844	95.41	147.513
0	45892	95.51	147.757
0	45940	95.61	148.002
0	45988	95.71	148.246
0	46036	95.81	148.491
0	46084	95.91	148.735
0	46134	96.01	148.98
0	46182	96.11	149.224
0	46230	96.21	149.468
0	46278	96.31	149.713
0	46326	96.41	149.957
0	46374	96.51	150.202
0	46422	96.61	150.446
0	46470	96.71	150.691
0	46518	96.81	150.935
0	46566	96.91	151.179
0	46616	97.01	151.424
0	46664	97.11	151.668
0	46712	97.21	151.913
0	46760	97.31	152.157
0	46808	97.41	152.402
0	46856	97.51	152.646
0	46904	97.61	152.891
0	46952	97.71	153.135
0	47000	97.81	153.379
0	47048	97.91	153.624
0	47098	98.01	153.868
0	47146	98.11	154.113
0	47194	98.21	154.357
0	47242	98.31	154.602
0	47290	98.41	154.846
0	47338	98.51	155.091
0	47386	98.61	155.335
0	47434	98.71	155.579
0	47482	98.81	155.824
0	47530	98.91	156.068
0	47580	99.01	156.313
0	47628	99.11	156.557
0	47676	99.21	156.802
0	47724	99.31	157.046
0	47772	99.41	157.29
0	47820	99.51	157.535
0	47868	99.61	157.779
0	47916	99.71	158.024
0	47964	99.81	158.268
0	48012	99.91	158.513
1	113	1.11	0
1	161	1.21	0
1	209	1.31	0
1	257	1.41	0
1	305	1.51	0
1	353	1.61	0
1	401	1.71	0
1	449	1.81	0
1	497	1.91	0
1	547	2.01	0
1	595	2.11	0
1	643	2.21	0
1	691	2.31	0
1	739	2.41	0
1	787	2.51	0
1	835	2.61	0
1	883	2.71	0
1	931	2.81	0
1	979	2.91	0
1	1029	3.01	0
1	1077	3.11	0
1	1125	3.21	0
1	1173	3.31	0
1	1221	3.41	0
1	1269	3.51	0
1	1317	3.61	0
1	1365	3.71	0
1	1413	3.81	0
1	1461	3.91	0
1	1511	4.01	0
1	1559	4.11	0
1	1607	4.21	0
1	1655	4.31	0
1	1703	4.41	0
1	1751	4.51	0
1	1799	4.61	0
1	1847	4.71	0
1	1895	4.81	0
1	1943	4.91	0
1	1993	5.01	0
1	2041	5.11	0
1	2089	5.21	0
1	2137	5.31	0
1	2185	5.41	0
1	2233	5.51	0
1	2281	5.61	0
1	2329	5.71	0
1	2377	5.81	0
1	2425	5.91	0
1	2475	6.01	0
1	2523	6.11	0
1	2571	6.21	0
1	2619	6.31	0
1	2667	6.41	0
1	2715	6.51	0
1	2763	6.61	0
1	2811	6.71	0
1	2859	6.81	0
1	2907	6.91	0
1	2957	7.01	0
1	3005	7.11	0
1	3053	7.21	0
1	3101	7.31	0
1	3149	7.41	0
1	3197	7.51	0
1	3245	7.61	0
1	3293	7.71	0
1	3341	7.81	0
1	3389	7.91	0
1	3439	8.01	0
1	3487	8.11	0
1	3535	8.21	0
1	3583	8.31	0
1	3631	8.41	0
1	3679	8.51	0
1	3727	8.61	0
1	3775	8.71	0
1	3823	8.81	0
1	3871	8.91	0
1	3921	9.01	0
1	3969	9.11	0
1	4017	9.21	0
1	4065	9.31	0
1	4113	9.41	0
1	4161	9.51	0
1	4209	9.61	0
1	4257	9.71	0
1	4305	9.81	0
1	4353	9.91	0
1	4423	10.01	0
1	4472	10.11	0
1	4521	10.21	0
1	4570	10.31	0
1	4619	10.41	0
1	4668	10.51	0
1	4717	10.61	0
1	4766	10.71	0
1	4815	10.81	0
1	4864	10.91	0
1	4915	11.01	0
1	4964	11.11	0
1	5013	11.21	0
1	5062	11.31	0
1	5111	11.41	0
1	5160	11.51	0
1	5209	11.61	0
1	5258	11.71	0
1	5307	11.81	0
1	5356	11.91	0
1	5407	12.01	0
1	5456	12.11	0
1	5505	12.21	0
1	5554	12.31	0
1	5603	12.41	0
1	5652	12.51	0
1	5701	12.61	0
1	5750	12.71	0
1	5799	12.81	0
1	5848	12.91	0
1	5899	13.01	0
1	5948	13.11	0
1	5997	13.21	0
1	6046	13.31	0
1	6095	13.41	0
1	6144	13.51	0
1	6193	13.61	0
1	6242	13.71	0
1	6291	13.81	0
1	6340	13.91	0
1	6391	14.01	0
1	6440	14.11	0
1	6489	14.21	0
1	6538	14.31	0
1	6587	14.41	0
1	6636	14.51	0
1	6685	14.61	0
1	6734	14.71	0
1	6783	14.81	0
1	6832	14.91	0
1	6883	15.01	0
1	6932	15.11	0
1	6981	15.21	0
1	7030	15.31	0
1	7079	15.41	0
1	7128	15.51	0
1	7177	15.61	0
1	7226	15.71	0
1	7275	15.81	0
1	7324	15.91	0
1	7375	16.01	0
1	7424	16.11	0
1	7473	16.21	0
1	7522	16.31	0
1	7571	16.41	0
1	7620	16.51	0
1	7669	16.61	0
1	7718	16.71	0
1	7767	16.81	0
1	7816	16.91	0
1	7867	17.01	0
1	7916	17.11	0
1	7965	17.21	0
1	8014	17.31	0
1	8063	17.41	0
1	8112	17.51	0
1	8161	17.61	0
1	8210	17.71	0
1	8259	17.81	0
1	8308	17.91	0
1	8359	18.01	0
1	8408	18.11	0
1	8457	18.21	0
1	8506	18.31	0
1	8555	18.41	0
1	8604	18.51	0
1	8653	18.61	0
1	8702	18.71	0
1	8751	18.81	0
1	8800	18.91	0
1	8851	19.01	0
1	8900	19.11	0
1	8949	19.21	0
1	8998	19.31	0
1	9047	19.41	0
1	9096	19.51	0
1	9145	19.61	0
1	9194	19.71	0
1	9243	19.81	0
1	9292	19.91	0
1	9343	20.01	0
1	9392	20.11	0
1	9441	20.21	0
1	9490	20.31	0
1	9539	20.41	0
1	9588	20.51	0
1	9637	20.61	0
1	9686	20.71	0
1	9735	20.81	0
1	9784	20.91	0
1	9835	21.01	0
1	9884	21.11	0
1	9933	21.21	0
1	9982	21.31	0
1	10031	21.41	0
1	10080	21.51	0
1	10129	21.61	0
1	10178	21.71	0
1	10227	21.81	0
1	10276	21.91	0
1	10327	22.01	0
1	10376	22.11	0
1	10425	22.21	0
1	10474	22.31	0
1	10523	22.41	0
1	10572	22.51	0
1	10621	22.61	0
1	10670	22.71	0
1	10719	22.81	0
1	10768	22.91	0
1	10819	23.01	0
1	10868	23.11	0
1	10917	23.21	0
1	10966	23.31	0
1	11015	23.41	0
1	11064	23.51	0
1	11113	23.61	0
1	11162	23.71	0
1	11211	23.81	0
1	11260	23.91	0
1	11311	24.01	0
1	11360	24.11	0
1	11409	24.21	0
1	11458	24.31	0
1	11507	24.41	0
1	11556	24.51	0
1	11605	24.61	0
1	11654	24.71	0
1	11703	24.81	0
1	11752	24.91	0
1	11803	25.01	0
1	11852	25.11	0
1	11901	25.21	0
1	11950	25.31	0
1	11999	25.41	0
1	12048	25.51	0
1	12097	25.61	0
1	12146	25.71	0
1	12195	25.81	0
1	12244	25.91	0
1	12295	26.01	0
1	12344	26.11	0
1	12393	26.21	0
1	12442	26.31	0
1	12491	26.41	0
1	12540	26.51	0
1	12589	26.61	0
1	12638	26.71	0
1	12687	26.81	0
1	12736	26.91	0
1	12787	27.01	0
1	12836	27.11	0
1	12885	27.21	0
1	12934	27.31	0
1	12983	27.41	0
1	13032	27.51	0
1	13081	27.61	0
1	13130	27.71	0
1	13179	27.81	0
1	13228	27.91	0
1	13279	28.01	0
1	13328	28.11	0
1	13377	28.21	0
1	13426	28.31	0
1	13475	28.41	0
1	13524	28.51	0
1	13573	28.61	0
1	13622	28.71	0
1	13671	28.81	0
1	13720	28.91	0
1	13771	29.01	0
1	13820	29.11	0
1	13869	29.21	0
1	13984	29.31	0
1	14032	29.41	0
1	14080	29.51	0
1	14128	29.61	0
1	14176	29.71	0
1	14224	29.81	0
1	14272	29.91	0
1	14322	30.01	0
1	14370	30.11	0
1	14418	30.21	0
1	14466	30.31	0
1	14514	30.41	0
1	14562	30.51	0
1	14610	30.61	0
1	14658	30.71	0
1	14706	30.81	0
1	14754	30.91	0
1	14804	31.01	0
1	14852	31.11	0
1	14900	31.21	0
1	14948	31.31	0
1	14996	31.41	0
1	15044	31.51	0
1	15092	31.61	0
1	15140	31.71	0
1	15188	31.81	0
1	15236	31.91	0
1	15286	32.01	0
1	15334	32.11	0
1	15382	32.21	0
1	15430	32.31	0
1	15478	32.41	0
1	15526	32.51	0
1	15574	32.61	0
1	15622	32.71	0
1	15670	32.81	0
1	15718	32.91	0
1	15768	33.01	0
1	15816	33.11	0
1	15864	33.21	0
1	15912	33.31	0
1	15960	33.41	0
1	16008	33.51	0
1	16056	33.61	0
1	16104	33.71	0
1	16152	33.81	0
1	16200	33.91	0
1	16250	34.01	0
1	16298	34.11	0
1	16346	34.21	0
1	16394	34.31	0
1	16442	34.41	0
1	16490	34.51	0
1	16538	34.61	0
1	16586	34.71	0
1	16634	34.81	0
1	16682	34.91	0
1	16732	35.01	0
1	16780	35.11	0
1	16828	35.21	0
1	16876	35.31	0
1	16924	35.41	0
1	16972	35.51	0
1	17020	35.61	0
1	17068	35.71	0
1	17116	35.81	0
1	17164	35.91	0
1	17214	36.01	0
1	17262	36.11	0
1	17310	36.21	0
1	17358	36.31	0
1	17406	36.41	0
1	17454	36.51	0
1	17502	36.61	0
1	17550	36.71	0
1	17598	36.81	0
1	17646	36.91	0
1	17696	37.01	0
1	17744	37.11	0
1	17792	37.21	0
1	17840	37.31	0
1	17888	37.41	0
1	17936	37.51	0
1	17984	37.61	0
1	18032	37.71	0
1	18080	37.81	0
1	18128	37.91	0
1	18178	38.01	0
1	18226	38.11	0
1	18274	38.21	0
1	18322	38.31	0
1	18370	38.41	0
1	18418	38.51	0
1	18466	38.61	0
1	18514	38.71	0
1	18562	38.81	0
1	18610	38.91	0
1	18660	39.01	0
1	18708	39.11	0
1	18756	39.21	0
1	18804	39.31	0
1	18852	39.41	0
1	18900	39.51	0
1	18948	39.61	0
1	18996	39.71	0
1	19044	39.81	0
1	19092	39.91	0
1	19142	40.01	0
1	19190	40.11	0
1	19238	40.21	0
1	19286	40.31	0
1	19334	40.41	0
1	19382	40.51	0
1	19430	40.61	0
1	19478	40.71	0
1	19526	40.81	0
1	19574	40.91	0
1	19624	41.01	0
1	19672	41.11	0
1	19720	41.21	0
1	19768	41.31	0
1	19816	41.41	0
1	19864	41.51	0
1	19912	41.61	0
1	19960	41.71	0
1	20008	41.81	0
1	20056	41.91	0
1	20106	42.01	0
1	20154	42.11	0
1	20202	42.21	0
1	20250	42.31	0
1	20298	42.41	0
1	20346	42.51	0
1	20394	42.61	0
1	20442	42.71	0
1	20490	42.81	0
1	20538	42.91	0
1	20588	43.01	0
1	20636	43.11	0
1	20684	43.21	0
1	20732	43.31	0
1	20780	43.41	0
1	20828	43.51	0
1	20876	43.61	0
1	20924	43.71	0
1	20972	43.81	0
1	21020	43.91	0
1	21070	44.01	0
1	21118	44.11	2.4444
1	21166	44.21	2.4444
1	21214	44.31	2.4444
1	21262	44.41	2.4444
1	21310	44.51	2.4444
1	21358	44.61	2.4444
1	21406	44.71	2.4444
1	21454	44.81	2.4444
1	21502	44.91	2.4444
1	21552	45.01	2.4444
1	21600	45.11	2.4444
1	21648	45.21	2.4444
1	21696	45.31	2.4444
1	21744	45.41	2.4444
1	21792	45.51	2.4444
1	21840	45.61	2.4444
1	21888	45.71	2.4444
1	21936	45.81	2.4444
1	21984	45.91	2.4444
1	22034	46.01	2.4444
1	22082	46.11	2.4444
1	22130	46.21	2.4444
1	22178	46.31	2.4444
1	22226	46.41	2.4444
1	22274	46.51	2.4444
1	22322	46.61	2.4444
1	22370	46.71	2.4444
1	22418	46.81	2.4444
1	22466	46.91	2.4444
1	22516	47.01	2.4444
1	22564	47.11	2.4444
1	22612	47.21	2.4444
1	22660	47.31	2.4444
1	22708	47.41	2.4444
1	22756	47.51	2.4444
1	22804	47.61	2.4444
1	22852	47.71	2.4444
1	22900	47.81	2.4444
1	22948	47.91	2.4444
1	22998	48.01	2.4444
1	23046	48.11	2.4444
1	23094	48.21	2.4444
1	23142	48.31	2.4444
1	23190	48.41	2.4444
1	23238	48.51	2.4444
1	23286	48.61	2.4444
1	23334	48.71	2.4444
1	23382	48.81	2.4444
1	23430	48.91	2.4444
1	23480	49.01	2.4444
1	23528	49.11	2.4444
1	23576	49.21	2.4444
1	23624	49.31	2.4444
1	23672	49.41	2.4444
1	23720	49.51	2.4444
1	23768	49.61	2.4444
1	23816	49.71	2.4444
1	23864	49.81	2.4444
1	23912	49.91	2.4444
1	23962	50.01	2.4444
1	24010	50.11	2.4444
1	24058	50.21	2.4444
1	24106	50.31	2.4444
1	24154	50.41	2.4444
1	24202	50.51	2.4444
1	24250	50.61	2.4444
1	24298	50.71	2.4444
1	24346	50.81	2.4444
1	24394	50.91	2.4444
1	24444	51.01	2.4444
1	24492	51.11	2.4444
1	24540	51.21	2.4444
1	24588	51.31	2.4444
1	24636	51.41	2.4444
1	24684	51.51	2.4444
1	24732	51.61	2.4444
1	24780	51.71	2.4444
1	24828	51.81	2.4444
1	24876	51.91	2.4444
1	24926	52.01	2.4444
1	24974	52.11	2.4444
1	25022	52.21	2.4444
1	25070	52.31	2.4444
1	25118	52.41	2.4444
1	25166	52.51	2.4444
1	25214	52.61	2.4444
1	25262	52.71	2.4444
1	25310	52.81	2.4444
1	25358	52.91	2.4444
1	25408	53.01	2.4444
1	25456	53.11	2.4444
1	25504	53.21	2.4444
1	25552	53.31	2.4444
1	25600	53.41	2.4444
1	25648	53.51	2.4444
1	25696	53.61	2.4444
1	25744	53.71	2.4444
1	25792	53.81	2.4444
1	25840	53.91	2.4444
1	25890	54.01	2.4444
1	25938	54.11	2.4444
1	25986	54.21	2.4444
1	26034	54.31	2.4444
1	26082	54.41	2.4444
1	26130	54.51	2.4444
1	26178	54.61	2.4444
1	26226	54.71	2.4444
1	26274	54.81	2.4444
1	26322	54.91	2.4444
1	26372	55.01	2.4444
1	26420	55.11	2.4444
1	26468	55.21	2.4444
1	26516	55.31	2.4444
1	26564	55.41	2.4444
1	26612	55.51	2.4444
1	26660	55.61	2.4444
1	26708	55.71	2.4444
1	26756	55.81	2.4444
1	26804	55.91	2.4444
1	26854	56.01	2.4444
1	26902	56.11	2.4444
1	26950	56.21	2.4444
1	26998	56.31	2.4444
1	27046	56.41	2.4444
1	27094	56.51	2.4444
1	27142	56.61	2.4444
1	27190	56.71	2.4444
1	27238	56.81	2.4444
1	27286	56.91	2.4444
1	27336	57.01	2.4444
1	27384	57.11	2.4444
1	27432	57.21	2.4444
1	27480	57.31	2.4444
1	27528	57.41	2.4444
1	27576	57.51	2.4444
1	27624	57.61	2.4444
1	27672	57.71	2.4444
1	27720	57.81	2.4444
1	27768	57.91	2.4444
1	27818	58.01	2.4444
1	27866	58.11	2.4444
1	27914	58.21	2.4444
1	27962	58.31	2.4444
1	28010	58.41	2.4444
1	28058	58.51	2.4444
1	28106	58.61	2.4444
1	28154	58.71	2.4444
1	28202	58.81	2.4444
1	28250	58.91	2.4444
1	28300	59.01	2.4444
1	28348	59.11	2.4444
1	28396	59.21	2.4444
1	28444	59.31	2.4444
1	28492	59.41	2.4444
1	28540	59.51	2.4444
1	28588	59.61	2.4444
1	28636	59.71	2.4444
1	28684	59.81	2.4444
1	28732	59.91	2.4444
1	28782	60.01	2.4444
1	28830	60.11	2.4444
1	28878	60.21	2.4444
1	28926	60.31	2.4444
1	28974	60.41	2.4444
1	29022	60.51	2.4444
1	29070	60.61	2.4444
1	29118	60.71	2.4444
1	29166	60.81	2.4444
1	29214	60.91	2.4444
1	29264	61.01	2.4444
1	29312	61.11	2.4444
1	29360	61.21	2.4444
1	29408	61.31	2.4444
1	29456	61.41	2.4444
1	29504	61.51	2.4444
1	29552	61.61	2.4444
1	29600	61.71	2.4444
1	29648	61.81	2.4444
1	29696	61.91	2.4444
1	29746	62.01	2.4444
1	29794	62.11	2.4444
1	29842	62.21	2.4444
1	29890	62.31	2.4444
1	29938	62.41	2.4444
1	29986	62.51	2.4444
1	30034	62.61	2.4444
1	30082	62.71	2.4444
1	30130	62.81	2.4444
1	30178	62.91	2.4444
1	30228	63.01	2.4444
1	30276	63.11	2.4444
1	30324	63.21	2.4444
1	30372	63.31	2.4444
1	30420	63.41	2.4444
1	30468	63.51	2.4444
1	30516	63.61	2.4444
1	30564	63.71	2.4444
1	30612	63.81	2.4444
1	30660	63.91	2.4444
1	30710	64.01	2.4444
1	30758	64.11	2.4444
1	30806	64.21	2.4444
1	30854	64.31	2.4444
1	30902	64.41	2.4444
1	30950	64.51	2.4444
1	30998	64.61	2.4444
1	31046	64.71	2.4444
1	31094	64.81	2.4444
1	31142	64.91	2.4444
1	31192	65.01	2.4444
1	31240	65.11	2.4444
1	31288	65.21	2.4444
1	31336	65.31	2.4444
1	31384	65.41	2.4444
1	31432	65.51	2.4444
1	31480	65.61	2.4444
1	31528	65.71	2.4444
1	31576	65.81	2.4444
1	31624	65.91	2.4444
1	31674	66.01	2.4444
1	31722	66.11	2.4444
1	31770	66.21	2.4444
1	31818	66.31	2.4444
1	31866	66.41	2.4444
1	31914	66.51	2.4444
1	31962	66.61	2.4444
1	32010	66.71	2.4444
1	32058	66.81	2.4444
1	32106	66.91	2.4444
1	32156	67.01	2.4444
1	32204	67.11	2.4444
1	32252	67.21	2.4444
1	32300	67.31	2.4444
1	32348	67.41	2.4444
1	32396	67.51	2.4444
1	32444	67.61	2.4444
1	32492	67.71	2.4444
1	32540	67.81	2.4444
1	32588	67.91	2.4444
1	32638	68.01	2.4444
1	32686	68.11	2.4444
1	32734	68.21	2.4444
1	32782	68.31	2.4444
1	32830	68.41	2.4444
1	32878	68.51	2.4444
1	32926	68.61	2.4444
1	32974	68.71	2.4444
1	33022	68.81	2.4444
1	33070	68.91	2.4444
1	33120	69.01	2.4444
1	33168	69.11	2.4444
1	33216	69.21	2.4444
1	33264	69.31	2.4444
1	33312	69.41	2.4444
1	33360	69.51	2.4444
1	33408	69.61	2.4444
1	33456	69.71	2.4444
1	33504	69.81	2.4444
1	33552	69.91	2.4444
1	33602	70.01	2.4444
1	33650	70.11	2.4444
1	33698	70.21	2.4444
1	33746	70.31	2.4444
1	33794	70.41	2.4444
1	33842	70.51	2.4444
1	33890	70.61	2.4444
1	33938	70.71	2.4444
1	33986	70.81	2.4444
1	34034	70.91	2.4444
1	34084	71.01	2.4444
1	34132	71.11	2.4444
1	34180	71.21	2.4444
1	34228	71.31	2.4444
1	34276	71.41	2.4444
1	34324	71.51	2.4444
1	34372	71.61	2.4444
1	34420	71.71	2.4444
1	34468	71.81	2.4444
1	34516	71.91	2.4444
1	34566	72.01	2.4444
1	34614	72.11	2.4444
1	34662	72.21	2.4444
1	34710	72.31	2.4444
1	34758	72.41	2.4444
1	34806	72.51	2.4444
1	34854	72.61	2.4444
1	34902	72.71	2.4444
1	34950	72.81	2.4444
1	34998	72.91	2.4444
1	35048	73.01	2.4444
1	35096	73.11	2.4444
1	35144	73.21	2.4444
1	35192	73.31	2.4444
1	35240	73.41	2.4444
1	35288	73.51	2.4444
1	35336	73.61	2.4444
1	35384	73.71	2.4444
1	35432	73.81	2.4444
1	35480	73.91	2.4444
1	35530	74.01	2.4444
1	35578	74.11	2.4444
1	35626	74.21	2.4444
1	35674	74.31	2.4444
1	35722	74.41	2.4444
1	35770	74.51	2.4444
1	35818	74.61	2.4444
1	35866	74.71	2.4444
1	35914	74.81	2.4444
1	35962	74.91	2.4444
1	36012	75.01	2.4444
1	36060	75.11	2.4444
1	36108	75.21	2.4444
1	36156	75.31	2.4444
1	36204	75.41	2.4444
1	36252	75.51	2.4444
1	36300	75.61	2.4444
1	36348	75.71	2.4444
1	36396	75.81	2.4444
1	36444	75.91	2.4444
1	36494	76.01	2.4444
1	36542	76.11	2.4444
1	36590	76.21	2.4444
1	36638	76.31	2.4444
1	36686	76.41	2.4444
1	36734	76.51	2.4444
1	36782	76.61	2.4444
1	36830	76.71	2.4444
1	36878	76.81	2.4444
1	36926	76.91	2.4444
1	36976	77.01	2.4444
1	37024	77.11	2.4444
1	37072	77.21	2.4444
1	37120	77.31	2.4444
1	37168	77.41	2.4444
1	37216	77.51	2.4444
1	37264	77.61	2.4444
1	37312	77.71	2.4444
1	37360	77.81	2.4444
1	37408	77.91	2.4444
1	37458	78.01	2.4444
1	37506	78.11	2.4444
1	37554	78.21	2.4444
1	37602	78.31	2.4444
1	37650	78.41	2.4444
1	37698	78.51	2.4444
1	37746	78.61	2.4444
1	37794	78.71	2.4444
1	37842	78.81	2.4444
1	37890	78.91	2.4444
1	37940	79.01	2.4444
1	37988	79.11	2.4444
1	38036	79.21	2.4444
1	38084	79.31	2.4444
1	38132	79.41	2.4444
1	38180	79.51	2.4444
1	38228	79.61	2.4444
1	38276	79.71	2.4444
1	38324	79.81	2.4444
1	38372	79.91	2.4444
1	38422	80.01	2.4444
1	38470	80.11	2.4444
1	38518	80.21	2.4444
1	38566	80.31	2.4444
1	38614	80.41	2.4444
1	38662	80.51	2.4444
1	38710	80.61	2.4444
1	38758	80.71	2.4444
1	38806	80.81	2.4444
1	38854	80.91	2.4444
1	38904	81.01	2.4444
1	38952	81.11	2.4444
1	39000	81.21	2.4444
1	39048	81.31	2.4444
1	39096	81.41	2.4444
1	39144	81.51	2.4444
1	39192	81.61	2.4444
1	39240	81.71	2.4444
1	39288	81.81	2.4444
1	39336	81.91	2.4444
1	39386	82.01	2.4444
1	39434	82.11	2.4444
1	39482	82.21	2.4444
1	39530	82.31	2.4444
1	39578	82.41	2.4444
1	39626	82.51	2.4444
1	39674	82.61	2.4444
1	39722	82.71	2.4444
1	39770	82.81	2.4444
1	39818	82.91	2.4444
1	39868	83.01	2.4444
1	39916	83.11	2.4444
1	39964	83.21	2.4444
1	40012	83.31	2.4444
1	40060	83.41	2.4444
1	40108	83.51	2.4444
1	40156	83.61	2.4444
1	40204	83.71	2.4444
1	40252	83.81	2.4444
1	40300	83.91	2.4444
1	40350	84.01	2.4444
1	40398	84.11	2.4444
1	40446	84.21	2.4444
1	40494	84.31	2.4444
1	40542	84.41	2.4444
1	40590	84.51	2.4444
1	40638	84.61	2.4444
1	40686	84.71	2.4444
1	40734	84.81	2.4444
1	40782	84.91	2.4444
1	40832	85.01	2.4444
1	40880	85.11	2.4444
1	40928	85.21	2.4444
1	40976	85.31	2.4444
1	41024	85.41	2.4444
1	41072	85.51	2.4444
1	41120	85.61	2.4444
1	41168	85.71	2.4444
1	41216	85.81	2.4444
1	41264	85.91	2.4444
1	41314	86.01	2.4444
1	41362	86.11	2.4444
1	41410	86.21	2.4444
1	41458	86.31	2.4444
1	41506	86.41	2.4444
1	41554	86.51	2.4444
1	41602	86.61	2.4444
1	41650	86.71	2.4444
1	41698	86.81	2.4444
1	41746	86.91	2.4444
1	41796	87.01	2.4444
1	41844	87.11	2.4444
1	41892	87.21	2.4444
1	41940	87.31	2.4444
1	41988	87.41	2.4444
1	42036	87.51	2.4444
1	42084	87.61	2.4444
1	42132	87.71	2.4444
1	42180	87.81	2.4444
1	42228	87.91	2.4444
1	42278	88.01	2.4444
1	42326	88.11	2.4444
1	42374	88.21	2.4444
1	42422	88.31	2.4444
1	42470	88.41	2.4444
1	42518	88.51	2.4444
1	42566	88.61	2.4444
1	42614	88.71	2.4444
1	42662	88.81	2.4444
1	42710	88.91	2.4444
1	42760	89.01	2.4444
1	42808	89.11	2.4444
1	42856	89.21	2.4444
1	42904	89.31	2.4444
1	42952	89.41	2.4444
1	43000	89.51	2.4444
1	43048	89.61	2.4444
1	43096	89.71	2.4444
1	43144	89.81	2.4444
1	43192	89.91	2.4444
1	43242	90.01	2.4444
1	43290	90.11	2.4444
1	43338	90.21	2.4444
1	43386	90.31	2.4444
1	43434	90.41	2.4444
1	43482	90.51	2.4444
1	43530	90.61	2.4444
1	43578	90.71	2.4444
1	43626	90.81	2.4444
1	43674	90.91	2.4444
1	43724	91.01	2.4444
1	43772	91.11	2.4444
1	43820	91.21	2.4444
1	43868	91.31	2.4444
1	43916	91.41	2.4444
1	43964	91.51	2.4444
1	44012	91.61	2.4444
1	44060	91.71	2.4444
1	44108	91.81	2.4444
1	44156	91.91	2.4444
1	44206	92.01	2.4444
1	44254	92.11	2.4444
1	44302	92.21	2.4444
1	44350	92.31	2.4444
1	44398	92.41	2.4444
1	44446	92.51	2.4444
1	44494	92.61	2.4444
1	44542	92.71	2.4444
1	44590	92.81	2.4444
1	44638	92.91	2.4444
1	44688	93.01	2.4444
1	44736	93.11	2.4444
1	44784	93.21	2.4444
1	44832	93.31	2.4444
1	44880	93.41	2.4444
1	44928	93.51	2.4444
1	44976	93.61	2.4444
1	45024	93.71	2.4444
1	45072	93.81	2.4444
1	45120	93.91	2.4444
1	45170	94.01	2.4444
1	45218	94.11	2.4444
1	45266	94.21	2.4444
1	45314	94.31	2.4444
1	45362	94.41	2.4444
1	45410	94.51	2.4444
1	45458	94.61	2.4444
1	45506	94.71	2.4444
1	45554	94.81	2.4444
1	45602	94.91	2.4444
1	45652	95.01	2.4444
1	45700	95.11	2.4444
1	45748	95.21	2.4444
1	45796	95.31	2.4444
1	45844	95.41	2.4444
1	45892	95.51	2.4444
1	45940	95.61	2.4444
1	45988	95.71	2.4444
1	46036	95.81	2.4444
1	46084	95.91	2.4444
1	46134	96.01	2.4444
1	46182	96.11	2.4444
1	46230	96.21	2.4444
1	46278	96.31	2.4444
1	46326	96.41	2.4444
1	46374	96.51	2.4444
1	46422	96.61	2.4444
1	46470	96.71	2.4444
1	46518	96.81	2.4444
1	46566	96.91	2.4444
1	46616	97.01	2.4444
1	46664	97.11	2.4444
1	46712	97.21	2.4444
1	46760	97.31	2.4444
1	46808	97.41	2.4444
1	46856	97.51	2.4444
1	46904	97.61	2.4444
1	46952	97.71	2.4444
1	47000	97.81	2.4444
1	47048	97.91	2.4444
1	47098	98.01	2.4444
1	47146	98.11	2.4444
1	47194	98.21	2.4444
1	47242	98.31	2.4444
1	47290	98.41	2.4444
1	47338	98.51	2.4444
1	47386	98.61	2.4444
1	47434	98.71	2.4444
1	47482	98.81	2.4444
1	47530	98.91	2.4444
1	47580	99.01	2.4444
1	47628	99.11	2.4444
1	47676	99.21	2.4444
1	47724	99.31	2.4444
1	47772	99.41	2.4444
1	47820	99.51	2.4444
1	47868	99.61	2.4444
1	47916	99.71	2.4444
1	47964	99.81	2.4444
1	48012	99.91	2.4444
2	113	1.11	0
2	161	1.21	0
2	209	1.31	0
2	257	1.41	0
2	305	1.51	0
2	353	1.61	0
2	401	1.71	0
2	449	1.81	0
2	497	1.91	0
2	547	2.01	0
2	595	2.11	0
2	643	2.21	0
2	691	2.31	0
2	739	2.41	0
2	787	2.51	0
2	835	2.61	0
2	883	2.71	0
2	931	2.81	0
2	979	2.91	0
2	1029	3.01	0
2	1077	3.11	0
2	1125	3.21	0
2	1173	3.31	0
2	1221	3.41	0
2	1269	3.51	0
2	1317	3.61	0
2	1365	3.71	0
2	1413	3.81	0
2	1461	3.91	0
2	1511	4.01	0
2	1559	4.11	0
2	1607	4.21	0
2	1655	4.31	0
2	1703	4.41	0
2	1751	4.51	0
2	1799	4.61	0
2	1847	4.71	0
2	1895	4.81	0
2	1943	4.91	0
2	1993	5.01	0
2	2041	5.11	0
2	2089	5.21	0
2	2137	5.31	0
2	2185	5.41	0
2	2233	5.51	0
2	2281	5.61	0
2	2329	5.71	0
2	2377	5.81	0
2	2425	5.91	0
2	2475	6.01	0
2	2523	6.11	0
2	2571	6.21	0
2	2619	6.31	0
2	2667	6.41	0
2	2715	6.51	0
2	2763	6.61	0
2	2811	6.71	0
2	2859	6.81	0
2	2907	6.91	0
2	2957	7.01	0
2	3005	7.11	0
2	3053	7.21	0
2	3101	7.31	0
2	3149	7.41	0
2	3197	7.51	0
2	3245	7.61	0
2	3293	7.71	0
2	3341	7.81	0
2	3389	7.91	0
2	3439	8.01	0
2	3487	8.11	0
2	3535	8.21	0
2	3583	8.31	0
2	3631	8.41	0
2	3679	8.51	0
2	3727	8.61	0
2	3775	8.71	0
2	3823	8.81	0
2	3871	8.91	0
2	3921	9.01	0
2	3969	9.11	0
2	4017	9.21	0
2	4065	9.31	0
2	4113	9.41	0
2	4161	9.51	0
2	4209	9.61	0
2	4257	9.71	0
2	4305	9.81	0
2	4353	9.91	0
2	4423	10.01	0
2	4472	10.11	0
2	4521	10.21	0
2	4570	10.31	0
2	4619	10.41	0
2	4668	10.51	0
2	4717	10.61	0
2	4766	10.71	0
2	4815	10.81	0
2	4864	10.91	0
2	4915	11.01	0
2	4964	11.11	0
2	5013	11.21	0
2	5062	11.31	0
2	5111	11.41	0
2	5160	11.51	0
2	5209	11.61	0
2	5258	11.71	0
2	5307	11.81	0
2	5356	11.91	0
2	5407	12.01	0
2	5456	12.11	0
2	5505	12.21	0
2	5554	12.31	0
2	5603	12.41	0
2	5652	12.51	0
2	5701	12.61	0
2	5750	12.71	0
2	5799	12.81	0
2	5848	12.91	0
2	5899	13.01	0
2	5948	13.11	0
2	5997	13.21	0
2	6046	13.31	0
2	6095	13.41	0
2	6144	13.51	0
2	6193	13.61	0
2	6242	13.71	0
2	6291	13.81	0
2	6340	13.91	0
2	6391	14.01	0
2	6440	14.11	0
2	6489	14.21	0
2	6538	14.31	0
2	6587	14.41	0
2	6636	14.51	0
2	6685	14.61	0
2	6734	14.71	0
2	6783	14.81	0
2	6832	14.91	0
2	6883	15.01	0
2	6932	15.11	0
2	6981	15.21	0
2	7030	15.31	0
2	7079	15.41	0
2	7128	15.51	0
2	7177	15.61	0
2	7226	15.71	0
2	7275	15.81	0
2	7324	15.91	0
2	7375	16.01	0
2	7424	16.11	0
2	7473	16.21	0
2	7522	16.31	0
2	7571	16.41	0
2	7620	16.51	0
2	7669	16.61	0
2	7718	16.71	0
2	7767	16.81	0
2	7816	16.91	0
2	7867	17.01	0
2	7916	17.11	0
2	7965	17.21	0
2	8014	17.31	0
2	8063	17.41	0
2	8112	17.51	0
2	8161	17.61	0
2	8210	17.71	0
2	8259	17.81	0
2	8308	17.91	0
2	8359	18.01	0
2	8408	18.11	0
2	8457	18.21	0
2	8506	18.31	0
2	8555	18.41	0
2	8604	18.51	0
2	8653	18.61	0
2	8702	18.71	0
2	8751	18.81	0
2	8800	18.91	0
2	8851	19.01	0
2	8900	19.11	0
2	8949	19.21	0
2	8998	19.31	0
2	9047	19.41	0
2	9096	19.51	0
2	9145	19.61	0
2	9194	19.71	0
2	9243	19.81	0
2	9292	19.91	0
2	9343	20.01	0
2	9392	20.11	0
2	9441	20.21	0
2	9490	20.31	0
2	9539	20.41	0
2	9588	20.51	0
2	9637	20.61	0
2	9686	20.71	0
2	9735	20.81	0
2	9784	20.91	0
2	9835	21.01	0
2	9884	21.11	0
2	9933	21.21	0
2	9982	21.31	0
2	10031	21.41	0
2	10080	21.51	0
2	10129	21.61	0
2	10178	21.71	0
2	10227	21.81	0
2	10276	21.91	0
2	10327	22.01	0
2	10376	22.11	0
2	10425	22.21	0
2	10474	22.31	0
2	10523	22.41	0
2	10572	22.51	0
2	10621	22.61	0
2	10670	22.71	0
2	10719	22.81	0
2	10768	22.91	0
2	10819	23.01	0
2	10868	23.11	0
2	10917	23.21	0
2	10966	23.31	0
2	11015	23.41	0
2	11064	23.51	0
2	11113	23.61	0
2	11162	23.71	0
2	11211	23.81	0
2	11260	23.91	0
2	11311	24.01	0
2	11360	24.11	0
2	11409	24.21	0
2	11458	24.31	0
2	11507	24.41	0
2	11556	24.51	0
2	11605	24.61	0
2	11654	24.71	0
2	11703	24.81	0
2	11752	24.91	0
2	11803	25.01	0
2	11852	25.11	0
2	11901	25.21	0
2	11950	25.31	0
2	11999	25.41	0
2	12048	25.51	0
2	12097	25.61	0
2	12146	25.71	0
2	12195	25.81	0
2	12244	25.91	0
2	12295	26.01	0
2	12344	26.11	0
2	12393	26.21	0
2	12442	26.31	0
2	12491	26.41	0
2	12540	26.51	0
2	12589	26.61	0
2	12638	26.71	0
2	12687	26.81	0
2	12736	26.91	0
2	12787	27.01	0
2	12836	27.11	0
2	12885	27.21	0
2	12934	27.31	0
2	12983	27.41	0
2	13032	27.51	0
2	13081	27.61	0
2	13130	27.71	0
2	13179	27.81	0
2	13228	27.91	0
2	13279	28.01	0
2	13328	28.11	0
2	13377	28.21	0
2	13426	28.31	0
2	13475	28.41	0
2	13524	28.51	0
2	13573	28.61	0
2	13622	28.71	0
2	13671	28.81	0
2	13720	28.91	0
2	13771	29.01	0
2	13820	29.11	0
2	13869	29.21	0
2	13984	29.31	0
2	14032	29.41	0
2	14080	29.51	0
2	14128	29.61	0
2	14176	29.71	0
2	14224	29.81	0
2	14272	29.91	0
2	14322	30.01	0
2	14370	30.11	0
2	14418	30.21	0
2	14466	30.31	0
2	14514	30.41	0
2	14562	30.51	0
2	14610	30.61	0
2	14658	30.71	0
2	14706	30.81	0
2	14754	30.91	0
2	14804	31.01	0
2	14852	31.11	0
2	14900	31.21	0
2	14948	31.31	0
2	14996	31.41	0
2	15044	31.51	0
2	15092	31.61	0
2	15140	31.71	0
2	15188	31.81	0
2	15236	31.91	0
2	15286	32.01	0
2	15334	32.11	0
2	15382	32.21	0
2	15430	32.31	0
2	15478	32.41	0
2	15526	32.51	0
2	15574	32.61	0
2	15622	32.71	0
2	15670	32.81	0
2	15718	32.91	0
2	15768	33.01	0
2	15816	33.11	0
2	15864	33.21	0
2	15912	33.31	0
2	15960	33.41	0
2	16008	33.51	0
2	16056	33.61	0
2	16104	33.71	0
2	16152	33.81	0
2	16200	33.91	0
2	16250	34.01	0
2	16298	34.11	0
2	16346	34.21	0
2	16394	34.31	0
2	16442	34.41	0
2	16490	34.51	0
2	16538	34.61	0
2	16586	34.71	0
2	16634	34.81	0
2	16682	34.91	0
2	16732	35.01	0
2	16780	35.11	0
2	16828	35.21	0
2	16876	35.31	0
2	16924	35.41	0
2	16972	35.51	0
2	17020	35.61	0
2	17068	35.71	0
2	17116	35.81	0
2	17164	35.91	0
2	17214	36.01	0
2	17262	36.11	0
2	17310	36.21	0
2	17358	36.31	0
2	17406	36.41	0
2	17454	36.51	0
2	17502	36.61	0
2	17550	36.71	0
2	17598	36.81	0
2	17646	36.91	0
2	17696	37.01	0
2	17744	37.11	0
2	17792	37.21	0
2	17840	37.31	0
2	17888	37.41	0
2	17936	37.51	0
2	17984	37.61	0
2	18032	37.71	0
2	18080	37.81	0
2	18128	37.91	0
2	18178	38.01	0
2	18226	38.11	0
2	18274	38.21	0
2	18322	38.31	0
2	18370	38.41	0
2	18418	38.51	0
2	18466	38.61	0
2	18514	38.71	0
2	18562	38.81	0
2	18610	38.91	0
2	18660	39.01	0
2	18708	39.11	0
2	18756	39.21	0
2	18804	39.31	0
2	18852	39.41	0
2	18900	39.51	0
2	18948	39.61	0
2	18996	39.71	0
2	19044	39.81	0
2	19092	39.91	0
2	19142	40.01	0
2	19190	40.11	0
2	19238	40.21	0
2	19286	40.31	0
2	19334	40.41	0
2	19382	40.51	0
2	19430	40.61	0
2	19478	40.71	0
2	19526	40.81	0
2	19574	40.91	0
2	19624	41.01	0
2	19672	41.11	0
2	19720	41.21	0
2	19768	41.31	0
2	19816	41.41	0
2	19864	41.51	0
2	19912	41.61	0
2	19960	41.71	0
2	20008	41.81	0
2	20056	41.91	0
2	20106	42.01	0
2	20154	42.11	0
2	20202	42.21	0
2	20250	42.31	0
2	20298	42.41	0
2	20346	42.51	0
2	20394	42.61	0
2	20442	42.71	0
2	20490	42.81	0
2	20538	42.91	0
2	20588	43.01	0
2	20636	43.11	0
2	20684	43.21	0
2	20732	43.31	0
2	20780	43.41	0
2	20828	43.51	0
2	20876	43.61	0
2	20924	43.71	0
2	20972	43.81	0
2	21020	43.91	0
2	21070	44.01	0
2	21118	44.11	0
2	21166	44.21	0
2	21214	44.31	0
2	21262	44.41	0
2	21310	44.51	0
2	21358	44.61	0
2	21406	44.71	0
2	21454	44.81	0
2	21502	44.91	0
2	21552	45.01	0
2	21600	45.11	0
2	21648	45.21	0
2	21696	45.31	0
2	21744	45.41	0
2	21792	45.51	0
2	21840	45.61	0
2	21888	45.71	0
2	21936	45.81	0
2	21984	45.91	0
2	22034	46.01	0
2	22082	46.11	0
2	22130	46.21	0
2	22178	46.31	0
2	22226	46.41	0
2	22274	46.51	0
2	22322	46.61	0
2	22370	46.71	0
2	22418	46.81	0
2	22466	46.91	0
2	22516	47.01	0
2	22564	47.11	0
2	22612	47.21	0
2	22660	47.31	0
2	22708	47.41	0
2	22756	47.51	0
2	22804	47.61	0
2	22852	47.71	0
2	22900	47.81	0
2	22948	47.91	0
2	22998	48.01	0
2	23046	48.11	0
2	23094	48.21	0
2	23142	48.31	0
2	23190	48.41	0
2	23238	48.51	0
2	23286	48.61	0
2	23334	48.71	0
2	23382	48.81	0
2	23430	48.91	0
2	23480	49.01	0
2	23528	49.11	0
2	23576	49.21	0
2	23624	49.31	0
2	23672	49.41	0
2	23720	49.51	0
2	23768	49.61	0
2	23816	49.71	0
2	23864	49.81	0
2	23912	49.91	0
2	23962	50.01	0
2	24010	50.11	0
2	24058	50.21	0
2	24106	50.31	0
2	24154	50.41	0
2	24202	50.51	0
2	24250	50.61	0
2	24298	50.71	0
2	24346	50.81	0
2	24394	50.91	0
2	24444	51.01	0
2	24492	51.11	0
2	24540	51.21	0
2	24588	51.31	0
2	24636	51.41	0
2	24684	51.51	0
2	24732	51.61	0
2	24780	51.71	0
2	24828	51.81	0
2	24876	51.91	0
2	24926	52.01	0
2	24974	52.11	0
2	25022	52.21	0
2	25070	52.31	0
2	25118	52.41	0
2	25166	52.51	0
2	25214	52.61	0
2	25262	52.71	0
2	25310	52.81	0
2	25358	52.91	0
2	25408	53.01	0
2	25456	53.11	0
2	25504	53.21	0
2	25552	53.31	0
2	25600	53.41	0
2	25648	53.51	0
2	25696	53.61	0
2	25744	53.71	0
2	25792	53.81	0
2	25840	53.91	0
2	25890	54.01	0
2	25938	54.11	0
2	25986	54.21	0
2	26034	54.31	0
2	26082	54.41	0
2	26130	54.51	0
2	26178	54.61	0
2	26226	54.71	0
2	26274	54.81	0
2	26322	54.91	0
2	26372	55.01	0
2	26420	55.11	0
2	26468	55.21	0
2	26516	55.31	0
2	26564	55.41	0
2	26612	55.51	0
2	26660	55.61	0
2	26708	55.71	0
2	26756	55.81	0
2	26804	55.91	0
2	26854	56.01	0
2	26902	56.11	0
2	26950	56.21	0
2	26998	56.31	0
2	27046	56.41	0
2	27094	56.51	0
2	27142	56.61	0
2	27190	56.71	0
2	27238	56.81	0
2	27286	56.91	0
2	27336	57.01	0
2	27384	57.11	0
2	27432	57.21	0
2	27480	57.31	0
2	27528	57.41	0
2	27576	57.51	0
2	27624	57.61	0
2	27672	57.71	0
2	27720	57.81	0
2	27768	57.91	0
2	27818	58.01	0
2	27866	58.11	0
2	27914	58.21	0
2	27962	58.31	0
2	28010	58.41	0
2	28058	58.51	0
2	28106	58.61	0
2	28154	58.71	0
2	28202	58.81	0
2	28250	58.91	0
2	28300	59.01	0
2	28348	59.11	0
2	28396	59.21	0
2	28444	59.31	0
2	28492	59.41	0
2	28540	59.51	0
2	28588	59.61	0
2	28636	59.71	0
2	28684	59.81	0
2	28732	59.91	0
2	28782	60.01	0
2	28830	60.11	0
2	28878	60.21	0
2	28926	60.31	0
2	28974	60.41	0
2	29022	60.51	0
2	29070	60.61	0
2	29118	60.71	0
2	29166	60.81	0
2	29214	60.91	0
2	29264	61.01	0
2	29312	61.11	0
2	29360	61.21	0
2	29408	61.31	0
2	29456	61.41	0
2	29504	61.51	0
2	29552	61.61	0
2	29600	61.71	0
2	29648	61.81	0
2	29696	61.91	0
2	29746	62.01	0
2	29794	62.11	0
2	29842	62.21	0
2	29890	62.31	0
2	29938	62.41	0
2	29986	62.51	0
2	30034	62.61	0
2	30082	62.71	0
2	30130	62.81	0
2	30178	62.91	0
2	30228	63.01	0
2	30276	63.11	0
2	30324	63.21	0
2	30372	63.31	0
2	30420	63.41	0
2	30468	63.51	0
2	30516	63.61	0
2	30564	63.71	0
2	30612	63.81	0
2	30660	63.91	0
2	30710	64.01	0
2	30758	64.11	0
2	30806	64.21	0
2	30854	64.31	0
2	30902	64.41	0
2	30950	64.51	0
2	30998	64.61	0
2	31046	64.71	0
2	31094	64.81	0
2	31142	64.91	0
2	31192	65.01	0
2	31240	65.11	0
2	31288	65.21	0
2	31336	65.31	0
2	31384	65.41	0
2	31432	65.51	0
2	31480	65.61	0
2	31528	65.71	0
2	31576	65.81	0
2	31624	65.91	0
2	31674	66.01	0
2	31722	66.11	0
2	31770	66.21	0
2	31818	66.31	0
2	31866	66.41	0
2	31914	66.51	0
2	31962	66.61	0
2	32010	66.71	0
2	32058	66.81	0
2	32106	66.91	0
2	32156	67.01	0
2	32204	67.11	0
2	32252	67.21	0
2	32300	67.31	0
2	32348	67.41	0
2	32396	67.51	0
2	32444	67.61	0
2	32492	67.71	0
2	32540	67.81	0
2	32588	67.91	0
2	32638	68.01	0
2	32686	68.11	0
2	32734	68.21	0
2	32782	68.31	0
2	32830	68.41	0
2	32878	68.51	0
2	32926	68.61	0
2	32974	68.71	0
2	33022	68.81	0
2	33070	68.91	0
2	33120	69.01	0
2	33168	69.11	0
2	33216	69.21	0
2	33264	69.31	0
2	33312	69.41	0
2	33360	69.51	0
2	33408	69.61	0
2	33456	69.71	0
2	33504	69.81	0
2	33552	69.91	0
2	33602	70.01	0
2	33650	70.11	0
2	33698	70.21	0
2	33746	70.31	0
2	33794	70.41	0
2	33842	70.51	0
2	33890	70.61	0
2	33938	70.71	0
2	33986	70.81	0
2	34034	70.91	0
2	34084	71.01	0
2	34132	71.11	0
2	34180	71.21	0
2	34228	71.31	0
2	34276	71.41	0
2	34324	71.51	0
2	34372	71.61	0
2	34420	71.71	0
2	34468	71.81	0
2	34516	71.91	0
2	34566	72.01	0
2	34614	72.11	0
2	34662	72.21	0
2	34710	72.31	0
2	34758	72.41	0
2	34806	72.51	0
2	34854	72.61	0
2	34902	72.71	0
2	34950	72.81	0
2	34998	72.91	0
2	35048	73.01	0
2	35096	73.11	0
2	35144	73.21	0
2	35192	73.31	0
2	35240	73.41	0
2	35288	73.51	0
2	35336	73.61	0
2	35384	73.71	0
2	35432	73.81	0
2	35480	73.91	0
2	35530	74.01	0
2	35578	74.11	0
2	35626	74.21	0
2	35674	74.31	0
2	35722	74.41	0
2	35770	74.51	0
2	35818	74.61	0
2	35866	74.71	0
2	35914	74.81	0
2	35962	74.91	0
2	36012	75.01	0
2	36060	75.11	0
2	36108	75.21	0
2	36156	75.31	0
2	36204	75.41	0
2	36252	75.51	0
2	36300	75.61	0
2	36348	75.71	0
2	36396	75.81	0
2	36444	75.91	0
2	36494	76.01	0
2	36542	76.11	0
2	36590	76.21	0
2	36638	76.31	0
2	36686	76.41	0
2	36734	76.51	0
2	36782	76.61	0
2	36830	76.71	0
2	36878	76.81	0
2	36926	76.91	0
2	36976	77.01	0
2	37024	77.11	0
2	37072	77.21	0
2	37120	77.31	0
2	37168	77.41	0
2	37216	77.51	0
2	37264	77.61	0
2	37312	77.71	0
2	37360	77.81	0
2	37408	77.91	0
2	37458	78.01	0
2	37506	78.11	0
2	37554	78.21	0
2	37602	78.31	0
2	37650	78.41	0
2	37698	78.51	0
2	37746	78.61	0
2	37794	78.71	0
2	37842	78.81	0
2	37890	78.91	0
2	37940	79.01	0
2	37988	79.11	0
2	38036	79.21	0
2	38084	79.31	0
2	38132	79.41	0
2	38180	79.51	0
2	38228	79.61	0
2	38276	79.71	0
2	38324	79.81	0
2	38372	79.91	0
2	38422	80.01	0
2	38470	80.11	0
2	38518	80.21	0
2	38566	80.31	0
2	38614	80.41	0
2	38662	80.51	0
2	38710	80.61	0
2	38758	80.71	0
2	38806	80.81	0
2	38854	80.91	0
2	38904	81.01	0
2	38952	81.11	0
2	39000	81.21	0
2	39048	81.31	0
2	39096	81.41	0
2	39144	81.51	0
2	39192	81.61	0
2	39240	81.71	0
2	39288	81.81	0
2	39336	81.91	0
2	39386	82.01	0
2	39434	82.11	0
2	39482	82.21	0
2	39530	82.31	0
2	39578	82.41	0
2	39626	82.51	0
2	39674	82.61	0
2	39722	82.71	0
2	39770	82.81	0
2	39818	82.91	0
2	39868	83.01	0
2	39916	83.11	0
2	39964	83.21	0
2	40012	83.31	0
2	40060	83.41	0
2	40108	83.51	0
2	40156	83.61	0
2	40204	83.71	0
2	40252	83.81	0
2	40300	83.91	0
2	40350	84.01	0
2	40398	84.11	0
2	40446	84.21	0
2	40494	84.31	0
2	40542	84.41	0
2	40590	84.51	0
2	40638	84.61	0
2	40686	84.71	0
2	40734	84.81	0
2	40782	84.91	0
2	40832	85.01	0
2	40880	85.11	0
2	40928	85.21	0
2	40976	85.31	0
2	41024	85.41	0
2	41072	85.51	0
2	41120	85.61	0
2	41168	85.71	0
2	41216	85.81	0
2	41264	85.91	0
2	41314	86.01	0
2	41362	86.11	0
2	41410	86.21	0
2	41458	86.31	0
2	41506	86.41	0
2	41554	86.51	0
2	41602	86.61	0
2	41650	86.71	0
2	41698	86.81	0
2	41746	86.91	0
2	41796	87.01	0
2	41844	87.11	0
2	41892	87.21	0
2	41940	87.31	0
2	41988	87.41	0
2	42036	87.51	0
2	42084	87.61	0
2	42132	87.71	0
2	42180	87.81	0
2	42228	87.91	0
2	42278	88.01	0
2	42326	88.11	0
2	42374	88.21	0
2	42422	88.31	0
2	42470	88.41	0
2	42518	88.51	0
2	42566	88.61	0
2	42614	88.71	0
2	42662	88.81	0
2	42710	88.91	0
2	42760	89.01	0
2	42808	89.11	0
2	42856	89.21	0
2	42904	89.31	0
2	42952	89.41	0
2	43000	89.51	0
2	43048	89.61	0
2	43096	89.71	0
2	43144	89.81	0
2	43192	89.91	0
2	43242	90.01	0
2	43290	90.11	0
2	43338	90.21	0
2	43386	90.31	0
2	43434	90.41	0
2	43482	90.51	0
2	43530	90.61	0
2	43578	90.71	0
2	43626	90.81	0
2	43674	90.91	0
2	43724	91.01	0
2	43772	91.11	0
2	43820	91.21	0
2	43868	91.31	0
2	43916	91.41	0
2	43964	91.51	0
2	44012	91.61	0
2	44060	91.71	0
2	44108	91.81	0
2	44156	91.91	0
2	44206	92.01	0
2	44254	92.11	0
2	44302	92.21	0
2	44350	92.31	0
2	44398	92.41	0
2	44446	92.51	0
2	44494	92.61	0
2	44542	92.71	0
2	44590	92.81	0
2	44638	92.91	0
2	44688	93.01	0
2	44736	93.11	0
2	44784	93.21	0
2	44832	93.31	0
2	44880	93.41	0
2	44928	93.51	0
2	44976	93.61	0
2	45024	93.71	0
2	45072	93.81	0
2	45120	93.91	0
2	45170	94.01	0
2	45218	94.11	0
2	45266	94.21	0
2	45314	94.31	0
2	45362	94.41	0
2	45410	94.51	0
2	45458	94.61	0
2	45506	94.71	0
2	45554	94.81	0
2	45602	94.91	0
2	45652	95.01	0
2	45700	95.11	0
2	45748	95.21	0
2	45796	95.31	0
2	45844	95.41	0
2	45892	95.51	0
2	45940	95.61	0
2	45988	95.71	0
2	46036	95.81	0
2	46084	95.91	0
2	46134	96.01	0
2	46182	96.11	0
2	46230	96.21	0
2	46278	96.31	0
2	46326	96.41	0
2	46374	96.51	0
2	46422	96.61	0
2	46470	96.71	0
2	46518	96.81	0
2	46566	96.91	0
2	46616	97.01	0
2	46664	97.11	0
2	46712	97.21	0
2	46760	97.31	0
2	46808	97.41	0
2	46856	97.51	0
2	46904	97.61	0
2	46952	97.71	0
2	47000	97.81	0
2	47048	97.91	0
2	47098	98.01	0
2	47146	98.11	0
2	47194	98.21	0
2	47242	98.31	0
2	47290	98.41	0
2	47338	98.51	0
2	47386	98.61	0
2	47434	98.71	0
2	47482	98.81	0
2	47530	98.91	0
2	47580	99.01	0
2	47628	99.11	0
2	47676	99.21	0
2	47724	99.31	0
2	47772	99.41	0
2	47820	99.51	0
2	47868	99.61	0
2	47916	99.71	0
2	47964	99.81	0
2	48012	99.91	0
3	113	1.11	-0.000716383
3	161	1.21	-0.00136341
3	209	1.31	-0.00186974
3	257	1.41	-0.00225157
3	305	1.51	-0.00252443
3	353	1.61	-0.00270298
3	401	1.71	-0.00280098
3	449	1.81	-0.00283113
3	497	1.91	-0.00280509
3	547	2.01	-0.00273342
3	595	2.11	-0.00262559
3	643	2.21	-0.00249005
3	691	2.31	-0.00233419
3	739	2.41	-0.00216447
3	787	2.51	-0.00198642
3	835	2.61	-0.00180472
3	883	2.71	-0.0016233
3	931	2.81	-0.00144536
3	979	2.91	-0.00127346
3	1029	3.01	-0.0011096
3	1077	3.11	-0.000955278
3	1125	3.21	-0.000811546
3	1173	3.31	-0.00067908
3	1221	3.41	-0.000558232
3	1269	3.51	-0.000449082
3	1317	3.61	-0.000351487
3	1365	3.71	-0.00026512
3	1413	3.81	-0.000189514
3	1461	3.91	-0.000124092
3	1511	4.01	-6.81972e-05
3	1559	4.11	-2.11209e-05
3	1607	4.21	1.78769e-05
3	1655	4.31	4.9548e-05
3	1703	4.41	7.46407e-05
3	1751	4.51	9.38867e-05
3	1799	4.61	0.000107991
3	1847	4.71	0.000117625
3	1895	4.81	0.000123418
3	1943	4.91	0.000125957
3	1993	5.01	0.000125781
3	2041	5.11	0.00012338
3	2089	5.21	0.000119198
3	2137	5.31	0.000113629
3	2185	5.41	0.000107022
3	2233	5.51	9.96832e-05
3	2281	5.61	9.18747e-05
3	2329	5.71	8.38211e-05
3	2377	5.81	7.57109e-05
3	2425	5.91	6.76999e-05
3	2475	6.01	5.99137e-05
3	2523	6.11	5.24518e-05
3	2571	6.21	4.53896e-05
3	2619	6.31	3.87821e-05
3	2667	6.41	3.2666e-05
3	2715	6.51	2.70628e-05
3	2763	6.61	2.19809e-05
3	2811	6.71	1.74176e-05
3	2859	6.81	1.33618e-05
3	2907	6.91	9.79494e-06
3	2957	7.01	6.6932e-06
3	3005	7.11	4.02864e-06
3	3053	7.21	1.77051e-06
3	3101	7.31	-1.13691e-07
3	3149	7.41	-1.65736e-06
3	3197	7.51	-2.89397e-06
3	3245	7.61	-3.85652e-06
3	3293	7.71	-4.57698e-06
3	3341	7.81	-5.08591e-06
3	3389	7.91	-5.41219e-06
3	3439	8.01	-5.58279e-06
3	3487	8.11	-5.6226e-06
3	3535	8.21	-5.55442e-06
3	3583	8.31	-5.39886e-06
3	3631	8.41	-5.17441e-06
3	3679	8.51	-4.89748e-06
3	3727	8.61	-4.58246e-06
3	3775	8.71	-4.24184e-06
3	3823	8.81	-3.88634e-06
3	3871	8.91	-3.52499e-06
3	3921	9.01	-3.16534e-06
3	3969	9.11	-2.81353e-06
3	4017	9.21	-2.47446e-06
3	4065	9.31	-2.15192e-06
3	4113	9.41	-1.84873e-06
3	4161	9.51	-1.56685e-06
3	4209	9.61	-1.30751e-06
3	4257	9.71	-1.0713e-06
3	4305	9.81	-8.58321e-07
3	4353	9.91	-6.68206e-07
3	4423	10.01	-5.0026e-07
3	4472	10.11	-3.53514e-07
3	4521	10.21	-2.2679e-07
3	4570	10.31	-1.18765e-07
3	4619	10.41	-2.80163e-08
3	4668	10.51	4.6931e-08
3	4717	10.61	1.07573e-07
3	4766	10.71	1.55391e-07
3	4815	10.81	1.91831e-07
3	4864	10.91	2.18284e-07
3	4915	11.01	2.3607e-07
3	4964	11.11	2.46427e-07
3	5013	11.21	2.50502e-07
3	5062	11.31	2.49353e-07
3	5111	11.41	2.43938e-07
3	5160	11.51	2.3512e-07
3	5209	11.61	2.23669e-07
3	5258	11.71	2.10264e-07
3	5307	11.81	1.95496e-07
3	5356	11.91	1.79874e-07
3	5407	12.01	1.63833e-07
3	5456	12.11	1.47736e-07
3	5505	12.21	1.3188e-07
3	5554	12.31	1.16508e-07
3	5603	12.41	1.01807e-07
3	5652	12.51	8.79222e-08
3	5701	12.61	7.49541e-08
3	5750	12.71	6.29711e-08
3	5799	12.81	5.20114e-08
3	5848	12.91	4.20883e-08
3	5899	13.01	3.3193e-08
3	5948	13.11	2.53003e-08
3	5997	13.21	1.83718e-08
3	6046	13.31	1.23581e-08
3	6095	13.41	7.20348e-09
3	6144	13.51	2.84537e-09
3	6193	13.61	-7.80886e-10
3	6242	13.71	-3.74136e-09
3	6291	13.81	-6.10285e-09
3	6340	13.91	-7.93072e-09
3	6391	14.01	-9.28821e-09
3	6440	14.11	-1.0235e-08
3	6489	14.21	-1.08283e-08
3	6538	14.31	-1.11211e-08
3	6587	14.41	-1.11612e-08
3	6636	14.51	-1.09946e-08
3	6685	14.61	-1.06599e-08
3	6734	14.71	-1.01945e-08
3	6783	14.81	-9.62999e-09
3	6832	14.91	-8.99405e-09
3	6883	15.01	-8.31086e-09
3	6932	15.11	-7.60103e-09
3	6981	15.21	-6.88338e-09
3	7030	15.31	-6.17071e-09
3	7079	15.41	-5.47544e-09
3	7128	15.51	-4.80682e-09
3	7177	15.61	-4.17266e-09
3	7226	15.71	-3.57687e-09
3	7275	15.81	-3.02443e-09
3	7324	15.91	-2.51674e-09
3	7375	16.01	-2.05489e-09
3	7424	16.11	-1.63958e-09
3	7473	16.21	-1.26903e-09
3	7522	16.31	-9.42535e-10
3	7571	16.41	-6.57963e-10
3	7620	16.51	-4.1247e-10
3	7669	16.61	-2.04636e-10
3	7718	16.71	-2.91323e-11
3	7767	16.81	1.14753e-10
3	7816	16.91	2.30926e-10
3	7867	17.01	3.22231e-10
3	7916	17.11	3.91154e-10
3	7965	17.21	4.40892e-10
3	8014	17.31	4.73577e-10
3	8063	17.41	4.92051e-10
3	8112	17.51	4.98446e-10
3	8161	17.61	4.94893e-10
3	8210	17.71	4.82814e-10
3	8259	17.81	4.6434e-10
3	8308	17.91	4.40892e-10
3	8359	18.01	4.13536e-10
3	8408	18.11	3.83693e-10
3	8457	18.21	3.51719e-10
3	8506	18.31	3.19744e-10
3	8555	18.41	2.8777e-10
3	8604	18.51	2.55795e-10
3	8653	18.61	2.25953e-10
3	8702	18.71	1.97531e-10
3	8751	18.81	1.6982e-10
3	8800	18.91	1.44951e-10
3	8851	19.01	1.21503e-10
3	8900	19.11	1.00187e-10
3	8949	19.21	8.10019e-11
3	8998	19.31	6.32383e-11
3	9047	19.41	4.86722e-11
3	9096	19.51	3.44613e-11
3	9145	19.61	2.34479e-11
3	9194	19.71	1.27898e-11
3	9243	19.81	4.9738e-12
3	9292	19.91	-2.13163e-12
3	9343	20.01	-8.17124e-12
3	9392	20.11	-1.1724e-11
3	9441	20.21	-1.52767e-11
3	9490	20.31	-1.88294e-11
3	9539	20.41	-2.02505e-11
3	9588	20.51	-2.02505e-11
3	9637	20.61	-2.02505e-11
3	9686	20.71	-2.02505e-11
3	9735	20.81	-2.02505e-11
3	9784	20.91	-2.02505e-11
3	9835	21.01	-2.02505e-11
3	9884	21.11	-2.02505e-11
3	9933	21.21	-2.02505e-11
3	9982	21.31	-1.88294e-11
3	10031	21.41	-1.7053e-11
3	10080	21.51	-1.52767e-11
3	10129	21.61	-1.38556e-11
3	10178	21.71	-1.24345e-11
3	10227	21.81	-1.13687e-11
3	10276	21.91	-1.03029e-11
3	10327	22.01	-9.23706e-12
3	10376	22.11	-8.52651e-12
3	10425	22.21	-7.4607e-12
3	10474	22.31	-6.75016e-12
3	10523	22.41	-6.03961e-12
3	10572	22.51	-5.68434e-12
3	10621	22.61	-4.9738e-12
3	10670	22.71	-4.61853e-12
3	10719	22.81	-4.26326e-12
3	10768	22.91	-3.90799e-12
3	10819	23.01	-3.55271e-12
3	10868	23.11	-3.19744e-12
3	10917	23.21	-2.84217e-12
3	10966	23.31	-2.4869e-12
3	11015	23.41	-2.13163e-12
3	11064	23.51	-2.13163e-12
3	11113	23.61	-1.77636e-12
3	11162	23.71	-1.77636e-12
3	11211	23.81	-1.42109e-12
3	11260	23.91	-1.42109e-12
3	11311	24.01	-1.06581e-12
3	11360	24.11	-1.06581e-12
3	11409	24.21	-1.06581e-12
3	11458	24.31	-1.06581e-12
3	11507	24.41	-7.10543e-13
3	11556	24.51	-7.10543e-13
3	11605	24.61	-7.10543e-13
3	11654	24.71	-7.10543e-13
3	11703	24.81	-7.10543e-13
3	11752	24.91	-3.55271e-13
3	11803	25.01	-3.55271e-13
3	11852	25.11	-3.55271e-13
3	11901	25.21	-3.55271e-13
3	11950	25.31	-3.55271e-13
3	11999	25.41	-3.55271e-13
3	12048	25.51	-3.55271e-13
3	12097	25.61	-3.55271e-13
3	12146	25.71	-3.55271e-13
3	12195	25.81	-3.55271e-13
3	12244	25.91	0
3	12295	26.01	0
3	12344	26.11	0
3	12393	26.21	0
3	12442	26.31	0
3	12491	26.41	0
3	12540	26.51	0
3	12589	26.61	0
3	12638	26.71	0
3	12687	26.81	0
3	12736	26.91	0
3	12787	27.01	0
3	12836	27.11	0
3	12885	27.21	0
3	12934	27.31	0
3	12983	27.41	0
3	13032	27.51	0
3	13081	27.61	0
3	13130	27.71	0
3	13179	27.81	0
3	13228	27.91	0
3	13279	28.01	0
3	13328	28.11	0
3	13377	28.21	0
3	13426	28.31	0
3	13475	28.41	0
3	13524	28.51	0
3	13573	28.61	0
3	13622	28.71	0
3	13671	28.81	0
3	13720	28.91	0
3	13771	29.01	0
3	13820	29.11	0
3	13869	29.21	0
3	13984	29.31	0
3	14032	29.41	0
3	14080	29.51	0
3	14128	29.61	0
3	14176	29.71	0
3	14224	29.81	0
3	14272	29.91	0
3	14322	30.01	0
3	14370	30.11	0
3	14418	30.21	0
3	14466	30.31	0
3	14514	30.41	0
3	14562	30.51	0
3	14610	30.61	0
3	14658	30.71	0
3	14706	30.81	0
3	14754	30.91	0
3	14804	31.01	0
3	14852	31.11	0
3	14900	31.21	0
3	14948	31.31	0
3	14996	31.41	0
3	15044	31.51	0
3	15092	31.61	0
3	15140	31.71	0
3	15188	31.81	0
3	15236	31.91	0
3	15286	32.01	0
3	15334	32.11	0
3	15382	32.21	0
3	15430	32.31	0
3	15478	32.41	0
3	15526	32.51	0
3	15574	32.61	0
3	15622	32.71	0
3	15670	32.81	0
3	15718	32.91	0
3	15768	33.01	0
3	15816	33.11	0
3	15864	33.21	0
3	15912	33.31	0
3	15960	33.41	0
3	16008	33.51	0
3	16056	33.61	0
3	16104	33.71	0
3	16152	33.81	0
3	16200	33.91	0
3	16250	34.01	0
3	16298	34.11	0
3	16346	34.21	0
3	16394	34.31	0
3	16442	34.41	0
3	16490	34.51	0
3	16538	34.61	0
3	16586	34.71	0
3	16634	34.81	0
3	16682	34.91	0
3	16732	35.01	0
3	16780	35.11	0
3	16828	35.21	0
3	16876	35.31	0
3	16924	35.41	0
3	16972	35.51	0
3	17020	35.61	0
3	17068	35.71	0
3	17116	35.81	0
3	17164	35.91	0
3	17214	36.01	0
3	17262	36.11	0
3	17310	36.21	0
3	17358	36.31	0
3	17406	36.41	0
3	17454	36.51	0
3	17502	36.61	0
3	17550	36.71	0
3	17598	36.81	0
3	17646	36.91	0
3	17696	37.01	0
3	17744	37.11	0
3	17792	37.21	0
3	17840	37.31	0
3	17888	37.41	0
3	17936	37.51	0
3	17984	37.61	0
3	18032	37.71	0
3	18080	37.81	0
3	18128	37.91	0
3	18178	38.01	0
3	18226	38.11	0
3	18274	38.21	0
3	18322	38.31	0
3	18370	38.41	0
3	18418	38.51	0
3	18466	38.61	0
3	18514	38.71	0
3	18562	38.81	0
3	18610	38.91	0
3	18660	39.01	0
3	18708	39.11	0
3	18756	39.21	0
3	18804	39.31	0
3	18852	39.41	0
3	18900	39.51	0
3	18948	39.61	0
3	18996	39.71	0
3	19044	39.81	0
3	19092	39.91	0
3	19142	40.01	0
3	19190	40.11	0
3	19238	40.21	0
3	19286	40.31	0
3	19334	40.41	0
3	19382	40.51	0
3	19430	40.61	0
3	19478	40.71	0
3	19526	40.81	0
3	19574	40.91	0
3	19624	41.01	0
3	19672	41.11	0
3	19720	41.21	0
3	19768	41.31	0
3	19816	41.41	0
3	19864	41.51	0
3	19912	41.61	0
3	19960	41.71	0
3	20008	41.81	0
3	20056	41.91	0
3	20106	42.01	0
3	20154	42.11	0
3	20202	42.21	0
3	20250	42.31	0
3	20298	42.41	0
3	20346	42.51	0
3	20394	42.61	0
3	20442	42.71	0
3	20490	42.81	0
3	20538	42.91	0
3	20588	43.01	0
3	20636	43.11	0
3	20684	43.21	0
3	20732	43.31	0
3	20780	43.41	0
3	20828	43.51	0
3	20876	43.61	0
3	20924	43.71	0
3	20972	43.81	0
3	21020	43.91	0
3	21070	44.01	0
3	21118	44.11	0
3	21166	44.21	0
3	21214	44.31	0
3	21262	44.41	0
3	21310	44.51	0
3	21358	44.61	0
3	21406	44.71	0
3	21454	44.81	0
3	21502	44.91	0
3	21552	45.01	0
3	21600	45.11	0
3	21648	45.21	0
3	21696	45.31	0
3	21744	45.41	0
3	21792	45.51	0
3	21840	45.61	0
3	21888	45.71	0
3	21936	45.81	0
3	21984	45.91	0
3	22034	46.01	0
3	22082	46.11	0
3	22130	46.21	0
3	22178	46.31	0
3	22226	46.41	0
3	22274	46.51	0
3	22322	46.61	0
3	22370	46.71	0
3	22418	46.81	0
3	22466	46.91	0
3	22516	47.01	0
3	22564	47.11	0
3	22612	47.21	0
3	22660	47.31	0
3	22708	47.41	0
3	22756	47.51	0
3	22804	47.61	0
3	22852	47.71	0
3	22900	47.81	0
3	22948	47.91	0
3	22998	48.01	0
3	23046	48.11	0
3	23094	48.21	0
3	23142	48.31	0
3	23190	48.41	0
3	23238	48.51	0
3	23286	48.61	0
3	23334	48.71	0
3	23382	48.81	0
3	23430	48.91	0
3	23480	49.01	0
3	23528	49.11	0
3	23576	49.21	0
3	23624	49.31	0
3	23672	49.41	0
3	23720	49.51	0
3	23768	49.61	0
3	23816	49.71	0
3	23864	49.81	0
3	23912	49.91	0
3	23962	50.01	0
3	24010	50.11	0
3	24058	50.21	0
3	24106	50.31	0
3	24154	50.41	0
3	24202	50.51	0
3	24250	50.61	0
3	24298	50.71	0
3	24346	50.81	0
3	24394	50.91	0
3	24444	51.01	0
3	24492	51.11	0
3	24540	51.21	0
3	24588	51.31	0
3	24636	51.41	0
3	24684	51.51	0
3	24732	51.61	0
3	24780	51.71	0
3	24828	51.81	0
3	24876	51.91	0
3	24926	52.01	0
3	24974	52.11	0
3	25022	52.21	0
3	25070	52.31	0
3	25118	52.41	0
3	25166	52.51	0
3	25214	52.61	0
3	25262	52.71	0
3	25310	52.81	0
3	25358	52.91	0
3	25408	53.01	0
3	25456	53.11	0
3	25504	53.21	0
3	25552	53.31	0
3	25600	53.41	0
3	25648	53.51	0
3	25696	53.61	0
3	25744	53.71	0
3	25792	53.81	0
3	25840	53.91	0
3	25890	54.01	0
3	25938	54.11	0
3	25986	54.21	0
3	26034	54.31	0
3	26082	54.41	0
3	26130	54.51	0
3	26178	54.61	0
3	26226	54.71	0
3	26274	54.81	0
3	26322	54.91	0
3	26372	55.01	0
3	26420	55.11	0
3	26468	55.21	0
3	26516	55.31	0
3	26564	55.41	0
3	26612	55.51	0
3	26660	55.61	0
3	26708	55.71	0
3	26756	55.81	0
3	26804	55.91	0
3	26854	56.01	0
3	26902	56.11	0
3	26950	56.21	0
3	26998	56.31	0
3	27046	56.41	0
3	27094	56.51	0
3	27142	56.61	0
3	27190	56.71	0
3	27238	56.81	0
3	27286	56.91	0
3	27336	57.01	0
3	27384	57.11	0
3	27432	57.21	0
3	27480	57.31	0
3	27528	57.41	0
3	27576	57.51	0
3	27624	57.61	0
3	27672	57.71	0
3	27720	57.81	0
3	27768	57.91	0
3	27818	58.01	0
3	27866	58.11	0
3	27914	58.21	0
3	27962	58.31	0
3	28010	58.41	0
3	28058	58.51	0
3	28106	58.61	0
3	28154	58.71	0
3	28202	58.81	0
3	28250	58.91	0
3	28300	59.01	0
3	28348	59.11	0
3	28396	59.21	0
3	28444	59.31	0
3	28492	59.41	0
3	28540	59.51	0
3	28588	59.61	0
3	28636	59.71	0
3	28684	59.81	0
3	28732	59.91	0
3	28782	60.01	0
3	28830	60.11	0
3	28878	60.21	0
3	28926	60.31	0
3	28974	60.41	0
3	29022	60.51	0
3	29070	60.61	0
3	29118	60.71	0
3	29166	60.81	0
3	29214	60.91	0
3	29264	61.01	0
3	29312	61.11	0
3	29360	61.21	0
3	29408	61.31	0
3	29456	61.41	0
3	29504	61.51	0
3	29552	61.61	0
3	29600	61.71	0
3	29648	61.81	0
3	29696	61.91	0
3	29746	62.01	0
3	29794	62.11	0
3	29842	62.21	0
3	29890	62.31	0
3	29938	62.41	0
3	29986	62.51	0
3	30034	62.61	0
3	30082	62.71	0
3	30130	62.81	0
3	30178	62.91	0
3	30228	63.01	0
3	30276	63.11	0
3	30324	63.21	0
3	30372	63.31	0
3	30420	63.41	0
3	30468	63.51	0
3	30516	63.61	0
3	30564	63.71	0
3	30612	63.81	0
3	30660	63.91	0
3	30710	64.01	0
3	30758	64.11	0
3	30806	64.21	0
3	30854	64.31	0
3	30902	64.41	0
3	30950	64.51	0
3	30998	64.61	0
3	31046	64.71	0
3	31094	64.81	0
3	31142	64.91	0
3	31192	65.01	0
3	31240	65.11	0
3	31288	65.21	0
3	31336	65.31	0
3	31384	65.41	0
3	31432	65.51	0
3	31480	65.61	0
3	31528	65.71	0
3	31576	65.81	0
3	31624	65.91	0
3	31674	66.01	0
3	31722	66.11	0
3	31770	66.21	0
3	31818	66.31	0
3	31866	66.41	0
3	31914	66.51	0
3	31962	66.61	0
3	32010	66.71	0
3	32058	66.81	0
3	32106	66.91	0
3	32156	67.01	0
3	32204	67.11	0
3	32252	67.21	0
3	32300	67.31	0
3	32348	67.41	0
3	32396	67.51	0
3	32444	67.61	0
3	32492	67.71	0
3	32540	67.81	0
3	32588	67.91	0
3	32638	68.01	0
3	32686	68.11	0
3	32734	68.21	0
3	32782	68.31	0
3	32830	68.41	0
3	32878	68.51	0
3	32926	68.61	0
3	32974	68.71	0
3	33022	68.81	0
3	33070	68.91	0
3	33120	69.01	0
3	33168	69.11	0
3	33216	69.21	0
3	33264	69.31	0
3	33312	69.41	0
3	33360	69.51	0
3	33408	69.61	0
3	33456	69.71	0
3	33504	69.81	0
3	33552	69.91	0
3	33602	70.01	0
3	33650	70.11	0
3	33698	70.21	0
3	33746	70.31	0
3	33794	70.41	0
3	33842	70.51	0
3	33890	70.61	0
3	33938	70.71	0
3	33986	70.81	0
3	34034	70.91	0
3	34084	71.01	0
3	34132	71.11	0
3	34180	71.21	0
3	34228	71.31	0
3	34276	71.41	0
3	34324	71.51	0
3	34372	71.61	0
3	34420	71.71	0
3	34468	71.81	0
3	34516	71.91	0
3	34566	72.01	0
3	34614	72.11	0
3	34662	72.21	0
3	34710	72.31	0
3	34758	72.41	0
3	34806	72.51	0
3	34854	72.61	0
3	34902	72.71	0
3	34950	72.81	0
3	34998	72.91	0
3	35048	73.01	0
3	35096	73.11	0
3	35144	73.21	0
3	35192	73.31	0
3	35240	73.41	0
3	35288	73.51	0
3	35336	73.61	0
3	35384	73.71	0
3	35432	73.81	0
3	35480	73.91	0
3	35530	74.01	0
3	35578	74.11	0
3	35626	74.21	0
3	35674	74.31	0
3	35722	74.41	0
3	35770	74.51	0
3	35818	74.61	0
3	35866	74.71	0
3	35914	74.81	0
3	35962	74.91	0
3	36012	75.01	0
3	36060	75.11	0
3	36108	75.21	0
3	36156	75.31	0
3	36204	75.41	0
3	36252	75.51	0
3	36300	75.61	0
3	36348	75.71	0
3	36396	75.81	0
3	36444	75.91	0
3	36494	76.01	0
3	36542	76.11	0
3	36590	76.21	0
3	36638	76.31	0
3	36686	76.41	0
3	36734	76.51	0
3	36782	76.61	0
3	36830	76.71	0
3	36878	76.81	0
3	36926	76.91	0
3	36976	77.01	0
3	37024	77.11	0
3	37072	77.21	0
3	37120	77.31	0
3	37168	77.41	0
3	37216	77.51	0
3	37264	77.61	0
3	37312	77.71	0
3	37360	77.81	0
3	37408	77.91	0
3	37458	78.01	0
3	37506	78.11	0
3	37554	78.21	0
3	37602	78.31	0
3	37650	78.41	0
3	37698	78.51	0
3	37746	78.61	0
3	37794	78.71	0
3	37842	78.81	0
3	37890	78.91	0
3	37940	79.01	0
3	37988	79.11	0
3	38036	79.21	0
3	38084	79.31	0
3	38132	79.41	0
3	38180	79.51	0
3	38228	79.61	0
3	38276	79.71	0
3	38324	79.81	0
3	38372	79.91	0
3	38422	80.01	0
3	38470	80.11	0
3	38518	80.21	0
3	38566	80.31	0
3	38614	80.41	0
3	38662	80.51	0
3	38710	80.61	0
3	38758	80.71	0
3	38806	80.81	0
3	38854	80.91	0
3	38904	81.01	0
3	38952	81.11	0
3	39000	81.21	0
3	39048	81.31	0
3	39096	81.41	0
3	39144	81.51	0
3	39192	81.61	0
3	39240	81.71	0
3	39288	81.81	0
3	39336	81.91	0
3	39386	82.01	0
3	39434	82.11	0
3	39482	82.21	0
3	39530	82.31	0
3	39578	82.41	0
3	39626	82.51	0
3	39674	82.61	0
3	39722	82.71	0
3	39770	82.81	0
3	39818	82.91	0
3	39868	83.01	0
3	39916	83.11	0
3	39964	83.21	0
3	40012	83.31	0
3	40060	83.41	0
3	40108	83.51	0
3	40156	83.61	0
3	40204	83.71	0
3	40252	83.81	0
3	40300	83.91	0
3	40350	84.01	0
3	40398	84.11	0
3	40446	84.21	0
3	40494	84.31	0
3	40542	84.41	0
3	40590	84.51	0
3	40638	84.61	0
3	40686	84.71	0
3	40734	84.81	0
3	40782	84.91	0
3	40832	85.01	0
3	40880	85.11	0
3	40928	85.21	0
3	40976	85.31	0
3	41024	85.41	0
3	41072	85.51	0
3	41120	85.61	0
3	41168	85.71	0
3	41216	85.81	0
3	41264	85.91	0
3	41314	86.01	0
3	41362	86.11	0
3	41410	86.21	0
3	41458	86.31	0
3	41506	86.41	0
3	41554	86.51	0
3	41602	86.61	0
3	41650	86.71	0
3	41698	86.81	0
3	41746	86.91	0
3	41796	87.01	0
3	41844	87.11	0
3	41892	87.21	0
3	41940	87.31	0
3	41988	87.41	0
3	42036	87.51	0
3	42084	87.61	0
3	42132	87.71	0
3	42180	87.81	0
3	42228	87.91	0
3	42278	88.01	0
3	42326	88.11	0
3	42374	88.21	0
3	42422	88.31	0
3	42470	88.41	0
3	42518	88.51	0
3	42566	88.61	0
3	42614	88.71	0
3	42662	88.81	0
3	42710	88.91	0
3	42760	89.01	0
3	42808	89.11	0
3	42856	89.21	0
3	42904	89.31	0
3	42952	89.41	0
3	43000	89.51	0
3	43048	89.61	0
3	43096	89.71	0
3	43144	89.81	0
3	43192	89.91	0
3	43242	90.01	0
3	43290	90.11	0
3	43338	90.21	0
3	43386	90.31	0
3	43434	90.41	0
3	43482	90.51	0
3	43530	90.61	0
3	43578	90.71	0
3	43626	90.81	0
3	43674	90.91	0
3	43724	91.01	0
3	43772	91.11	0
3	43820	91.21	0
3	43868	91.31	0
3	43916	91.41	0
3	43964	91.51	0
3	44012	91.61	0
3	44060	91.71	0
3	44108	91.81	0
3	44156	91.91	0
3	44206	92.01	0
3	44254	92.11	0
3	44302	92.21	0
3	44350	92.31	0
3	44398	92.41	0
3	44446	92.51	0
3	44494	92.61	0
3	44542	92.71	0
3	44590	92.81	0
3	44638	92.91	0
3	44688	93.01	0
3	44736	93.11	0
3	44784	93.21	0
3	44832	93.31	0
3	44880	93.41	0
3	44928	93.51	0
3	44976	93.61	0
3	45024	93.71	0
3	45072	93.81	0
3	45120	93.91	0
3	45170	94.01	0
3	45218	94.11	0
3	45266	94.21	0
3	45314	94.31	0
3	45362	94.41	0
3	45410	94.51	0
3	45458	94.61	0
3	45506	94.71	0
3	45554	94.81	0
3	45602	94.91	0
3	45652	95.01	0
3	45700	95.11	0
3	45748	95.21	0
3	45796	95.31	0
3	45844	95.41	0
3	45892	95.51	0
3	45940	95.61	0
3	45988	95.71	0
3	46036	95.81	0
3	46084	95.91	0
3	46134	96.01	0
3	46182	96.11	0
3	46230	96.21	0
3	46278	96.31	0
3	46326	96.41	0
3	46374	96.51	0
3	46422	96.61	0
3	46470	96.71	0
3	46518	96.81	0
3	46566	96.91	0
3	46616	97.01	0
3	46664	97.11	0
3	46712	97.21	0
3	46760	97.31	0
3	46808	97.41	0
3	46856	97.51	0
3	46904	97.61	0
3	46952	97.71	0
3	47000	97.81	0
3	47048	97.91	0
3	47098	98.01	0
3	47146	98.11	0
3	47194	98.21	0
3	47242	98.31	0
3	47290	98.41	0
3	47338	98.51	0
3	47386	98.61	0
3	47434	98.71	0
3	47482	98.81	0
3	47530	98.91	0
3	47580	99.01	0
3	47628	99.11	0
3	47676	99.21	0
3	47724	99.31	0
3	47772	99.41	0
3	47820	99.51	0
3	47868	99.61	0
3	47916	99.71	0
3	47964	99.81	0
3	48012	99.91	0
4	113	1.11	-0.00437036
4	161	1.21	-0.00426837
4	209	1.31	-0.00410815
4	257	1.41	-0.00390303
4	305	1.51	-0.00366476
4	353	1.61	-0.00340356
4	401	1.71	-0.00312825
4	449	1.81	-0.00284628
4	497	1.91	-0.00256392
4	547	2.01	-0.0022863
4	595	2.11	-0.00201755
4	643	2.21	-0.00176089
4	691	2.31	-0.00151876
4	739	2.41	-0.00129289
4	787	2.51	-0.00108441
4	835	2.61	-0.00089393
4	883	2.71	-0.000721638
4	931	2.81	-0.000567355
4	979	2.91	-0.000430614
4	1029	3.01	-0.000310715
4	1077	3.11	-0.000206783
4	1125	3.21	-0.000117814
4	1173	3.31	-4.27149e-05
4	1221	3.41	1.96584e-05
4	1269	3.51	7.04736e-05
4	1317	3.61	0.000110896
4	1365	3.71	0.000142067
4	1413	3.81	0.00016509
4	1461	3.91	0.000181016
4	1511	4.01	0.000190834
4	1559	4.11	0.000195466
4	1607	4.21	0.00019576
4	1655	4.31	0.000192489
4	1703	4.41	0.000186354
4	1751	4.51	0.000177979
4	1799	4.61	0.000167916
4	1847	4.71	0.000156649
4	1895	4.81	0.000144597
4	1943	4.91	0.000132116
4	1993	5.01	0.000119508
4	2041	5.11	0.000107021
4	2089	5.21	9.48587e-05
4	2137	5.31	8.31796e-05
4	2185	5.41	7.21068e-05
4	2233	5.51	6.17299e-05
4	2281	5.61	5.21101e-05
4	2329	5.71	4.32839e-05
4	2377	5.81	3.52669e-05
4	2425	5.91	2.80577e-05
4	2475	6.01	2.16404e-05
4	2523	6.11	1.59878e-05
4	2571	6.21	1.1064e-05
4	2619	6.31	6.82631e-06
4	2667	6.41	3.22748e-06
4	2715	6.51	2.17307e-07
4	2763	6.61	-2.25598e-06
4	2811	6.71	-4.24448e-06
4	2859	6.81	-5.79961e-06
4	2907	6.91	-6.97134e-06
4	2957	7.01	-7.80753e-06
4	3005	7.11	-8.35346e-06
4	3053	7.21	-8.65149e-06
4	3101	7.31	-8.7408e-06
4	3149	7.41	-8.6573e-06
4	3197	7.51	-8.43352e-06
4	3245	7.61	-8.09868e-06
4	3293	7.71	-7.67874e-06
4	3341	7.81	-7.19651e-06
4	3389	7.91	-6.67185e-06
4	3439	8.01	-6.12177e-06
4	3487	8.11	-5.56072e-06
4	3535	8.21	-5.00073e-06
4	3583	8.31	-4.45164e-06
[...]
19	29067	60.597787320212	1
19	29115	60.697784764319	1
19	29163	60.797795210057	1
19	29211	60.897792657425	1
19	29259	60.997790106425	1
19	29309	61.097787557055	1
19	29357	61.197785009316	1
19	29405	61.297795463208	1
19	29453	61.39779291873	1
19	29501	61.497790375883	1
19	29549	61.597787834667	1
19	29597	61.697785295081	1
19	29645	61.797782757126	1
19	29693	61.897793220802	1
19	29741	61.997790686108	1
19	29791	62.097788153046	1
19	29839	62.197785621614	1
19	29887	62.297783091813	1
19	29935	62.397793563643	1
19	29983	62.497791037103	1
19	30031	62.597788512194	1
19	30079	62.697785988916	1
19	30127	62.797783467268	1
19	30175	62.897793947251	1
19	30223	62.997791428865	1
19	30273	63.097788912109	1
19	30321	63.197786396985	1
19	30369	63.297783883491	1
19	30417	63.397794371628	1
19	30465	63.497791861396	1
19	30513	63.597789352794	1
19	30561	63.697786845823	1
19	30609	63.797784340483	1
19	30657	63.897794836773	1
19	30705	63.997792334694	1
19	30755	64.097789834246	1
19	30803	64.197787335428	1
19	30851	64.297784838242	1
19	30899	64.397795342686	1
19	30947	64.497792848761	1
19	30995	64.597790356467	1
19	31043	64.697787865803	1
19	31091	64.79778537677	1
19	31139	64.897782889368	1
19	31187	64.997793403596	1
19	31237	65.097790919455	1
19	31285	65.197788436945	1
19	31333	65.297785956065	1
19	31381	65.397783476817	1
19	31429	65.497793999199	1
19	31477	65.597791523212	1
19	31525	65.697789048856	1
19	31573	65.79778657613	1
19	31621	65.897784105035	1
19	31669	65.997794635571	1
19	31719	66.097792167737	1
19	31767	66.197789701534	1
19	31815	66.297787236962	1
19	31863	66.39778477402	1
19	31911	66.49779531271	1
19	31959	66.59779285303	1
19	32007	66.697790394981	1
19	32055	66.797787938563	1
19	32103	66.897785483775	1
19	32151	66.997783030618	1
19	32201	67.097793579092	1
19	32249	67.197791129196	1
19	32297	67.297788680931	1
19	32345	67.397786234297	1
19	32393	67.497783789294	1
19	32441	67.597794345922	1
19	32489	67.69779190418	1
19	32537	67.797789464069	1
19	32585	67.897787025589	1
19	32633	67.997784588739	1
19	32683	68.09779515352	1
19	32731	68.197792719932	1
19	32779	68.297790287974	1
19	32827	68.397787857647	1
19	32875	68.497785428951	1
19	32923	68.597783001886	1
19	32971	68.697793576452	1
19	33019	68.797791152648	1
19	33067	68.897788730475	1
19	33115	68.997786309933	1
19	33165	69.097783891021	1
19	33213	69.19779447374	1
19	33261	69.29779205809	1
19	33309	69.39778964407	1
19	33357	69.497787231681	1
19	33405	69.597784820923	1
19	33453	69.697795411796	1
19	33501	69.7977930043	1
19	33549	69.897790598434	1
19	33597	69.997788194199	1
19	33647	70.097785791595	1
19	33695	70.197783390621	1
19	33743	70.297793991278	1
19	33791	70.397791593566	1
19	33839	70.497789197484	1
19	33887	70.597786803033	1
19	33935	70.697784410213	1
19	33983	70.797795019024	1
19	34031	70.897792629466	1
19	34079	70.997790241538	1
19	34129	71.097787855241	1
19	34177	71.197785470575	1
19	34225	71.297783087539	1
19	34273	71.397793706134	1
19	34321	71.49779132636	1
19	34369	71.597788948216	1
19	34417	71.697786571704	1
19	34465	71.797784196822	1
19	34513	71.897794823571	1
19	34561	71.997792451951	1
19	34611	72.097790081961	1
19	34659	72.197787713602	1
19	34707	72.297785346874	1
19	34755	72.397782981776	1
19	34803	72.497793618309	1
19	34851	72.597791256473	1
19	34899	72.697788896267	1
19	34947	72.797786537693	1
19	34995	72.897784180749	1
19	35043	72.997794825436	1
19	35093	73.097792471754	1
19	35141	73.197790119702	1
19	35189	73.297787769281	1
19	35237	73.397785420491	1
19	35285	73.497783073331	1
19	35333	73.597793727802	1
19	35381	73.697791383904	1
19	35429	73.797789041636	1
19	35477	73.897786701	1
19	35525	73.997784361994	1
19	35575	74.097795024619	1
19	35623	74.197792688875	1
19	35671	74.297790354761	1
19	35719	74.397788022278	1
19	35767	74.497785691426	1
19	35815	74.597783362204	1
19	35863	74.697794034613	1
19	35911	74.797791708653	1
19	35959	74.897789384323	1
19	36007	74.997787061625	1
19	36057	75.097784740557	1
19	36105	75.19779542112	1
19	36153	75.297793103314	1
19	36201	75.397790787138	1
19	36249	75.497788472593	1
19	36297	75.597786159679	1
19	36345	75.697783848395	1
19	36393	75.797794538742	1
19	36441	75.89779223072	1
19	36489	75.997789924328	1
19	36539	76.097787619568	1
19	36587	76.197785316438	1
19	36635	76.297783014939	1
19	36683	76.397793715071	1
19	36731	76.497791416833	1
19	36779	76.597789120226	1
19	36827	76.69778682525	1
19	36875	76.797784531904	1
19	36923	76.897795240189	1
19	36971	76.997792950105	1
19	37021	77.097790661651	1
19	37069	77.197788374829	1
19	37117	77.297786089637	1
19	37165	77.397783806076	1
19	37213	77.497794524146	1
19	37261	77.597792243846	1
19	37309	77.697789965177	1
19	37357	77.797787688139	1
19	37405	77.897785412731	1
19	37453	77.997783138954	1
19	37503	78.097793866808	1
19	37551	78.197791596292	1
19	37599	78.297789327408	1
19	37647	78.397787060154	1
19	37695	78.497784794531	1
19	37743	78.597795530539	1
19	37791	78.697793268177	1
19	37839	78.797791007446	1
19	37887	78.897788748346	1
19	37935	78.997786490876	1
19	37985	79.097784235037	1
19	38033	79.197794980829	1
19	38081	79.297792728251	1
19	38129	79.397790477305	1
19	38177	79.497788227989	1
19	38225	79.597785980304	1
19	38273	79.69778373425	1
19	38321	79.797794489826	1
19	38369	79.897792247033	1
19	38417	79.997790005871	1
19	38467	80.097787766339	1
19	38515	80.197785528438	1
19	38563	80.297783292168	1
19	38611	80.397794057528	1
19	38659	80.49779182452	1
19	38707	80.597789593142	1
19	38755	80.697787363395	1
19	38803	80.797785135279	1
19	38851	80.897782908793	1
19	38899	80.997793683938	1
19	38949	81.097791460714	1
19	38997	81.19778923912	1
19	39045	81.297787019157	1
19	39093	81.397784800825	1
19	39141	81.497795584123	1
19	39189	81.597793369053	1
19	39237	81.697791155613	1
19	39285	81.797788943804	1
19	39333	81.897786733626	1
19	39381	81.997784525078	1
19	39431	82.097795318161	1
19	39479	82.197793112875	1
19	39527	82.297790909219	1
19	39575	82.397788707194	1
19	39623	82.4977865068	1
19	39671	82.597784308036	1
19	39719	82.697795110904	1
19	39767	82.797792915402	1
19	39815	82.897790721531	1
19	39863	82.997788529291	1
19	39913	83.097786338681	1
19	39961	83.197784149702	1
19	40009	83.297794962354	1
19	40057	83.397792776636	1
19	40105	83.497790592549	1
19	40153	83.597788410093	1
19	40201	83.697786229267	1
19	40249	83.797784050073	1
19	40297	83.897794872509	1
19	40345	83.997792696576	1
19	40395	84.097790522274	1
19	40443	84.197788349602	1
19	40491	84.297786178561	1
19	40539	84.397784009151	1
19	40587	84.497794841371	1
19	40635	84.597792675222	1
19	40683	84.697790510704	1
19	40731	84.797788347816	1
19	40779	84.89778618656	1
19	40827	84.997784026934	1
19	40877	85.097794868939	1
19	40925	85.197792712575	1
19	40973	85.297790557841	1
19	41021	85.397788404738	1
19	41069	85.497786253266	1
19	41117	85.597784103424	1
19	41165	85.697794955213	1
19	41213	85.797792808633	1
19	41261	85.897790663683	1
19	41309	85.997788520365	1
19	41359	86.097786378677	1
19	41407	86.19778423862	1
19	41455	86.297795100194	1
19	41503	86.397792963398	1
19	41551	86.497790828233	1
19	41599	86.597788694699	1
19	41647	86.697786562795	1
19	41695	86.797784432522	1
19	41743	86.89779530388	1
19	41791	86.997793176868	1
19	41841	87.097791051488	1
19	41889	87.197788927738	1
19	41937	87.297786805619	1
19	41985	87.397784685131	1
19	42033	87.497795566273	1
19	42081	87.597793449046	1
19	42129	87.69779133345	1
19	42177	87.797789219484	1
19	42225	87.897787107149	1
19	42273	87.997784996445	1
19	42323	88.097795887372	1
19	42371	88.19779377993	1
19	42419	88.297791674118	1
19	42467	88.397789569937	1
19	42515	88.497787467387	1
19	42563	88.597785366467	1
19	42611	88.697783267178	1
19	42659	88.79779416952	1
19	42707	88.897792073492	1
19	42755	88.997789979095	1
19	42805	89.097787886329	1
19	42853	89.197785795194	1
19	42901	89.29778370569	1
19	42949	89.397794617816	1
19	42997	89.497792531573	1
19	43045	89.597790446961	1
19	43093	89.697788363979	1
19	43141	89.797786282628	1
19	43189	89.897784202908	1
19	43237	89.997795124818	1
19	43287	90.097793048359	1
19	43335	90.197790973531	1
19	43383	90.297788900334	1
19	43431	90.397786828768	1
19	43479	90.497784758832	1
19	43527	90.597795690527	1
19	43575	90.697793623853	1
19	43623	90.797791558809	1
19	43671	90.897789495396	1
19	43719	90.997787433614	1
19	43769	91.097785373462	1
19	43817	91.197783314941	1
19	43865	91.297794258051	1
19	43913	91.397792202792	1
19	43961	91.497790149164	1
19	44009	91.597788097166	1
19	44057	91.697786046799	1
19	44105	91.797783998063	1
19	44153	91.897794950957	1
19	44201	91.997792905482	1
19	44251	92.097790861638	1
19	44299	92.197788819424	1
19	44347	92.297786778842	1
19	44395	92.39778473989	1
19	44443	92.497795702569	1
19	44491	92.597793666879	1
19	44539	92.697791632819	1
19	44587	92.79778960039	1
19	44635	92.897787569592	1
19	44683	92.997785540424	1
19	44733	93.097783512887	1
19	44781	93.197794486981	1
19	44829	93.297792462705	1
19	44877	93.397790440061	1
19	44925	93.497788419047	1
19	44973	93.597786399664	1
19	45021	93.697784381912	1
19	45069	93.79779536579	1
19	45117	93.897793351299	1
19	45165	93.997791338439	1
19	45215	94.097789327209	1
19	45263	94.19778731761	1
19	45311	94.297785309642	1
19	45359	94.397783303304	1
19	45407	94.497794298598	1
19	45455	94.597792295522	1
19	45503	94.697790294077	1
19	45551	94.797788294263	1
19	45599	94.897786296079	1
19	45647	94.997784299526	1
19	45697	95.097795304604	1
19	45745	95.197793311312	1
19	45793	95.297791319651	1
19	45841	95.397789329621	1
19	45889	95.497787341221	1
19	45937	95.597785354453	1
19	45985	95.697783369315	1
19	46033	95.797794385808	1
19	46081	95.897792403932	1
19	46129	95.997790423686	1
19	46179	96.097788445071	1
19	46227	96.197786468087	1
19	46275	96.297784492733	1
19	46323	96.39779551901	1
19	46371	96.497793546918	1
19	46419	96.597791576456	1
19	46467	96.697789607626	1
19	46515	96.797787640426	1
19	46563	96.897785674857	1
19	46611	96.997783710919	1
19	46661	97.097794748611	1
19	46709	97.197792787934	1
19	46757	97.297790828888	1
19	46805	97.397788871472	1
19	46853	97.497786915687	1
19	46901	97.597784961533	1
19	46949	97.697796009009	1
19	46997	97.797794058117	1
19	47045	97.897792108855	1
19	47093	97.997790161224	1
19	47143	98.097788215224	1
19	47191	98.197786270854	1
19	47239	98.297784328115	1
19	47287	98.397795387007	1
19	47335	98.497793447529	1
19	47383	98.597791509682	1
19	47431	98.697789573466	1
19	47479	98.79778763888	1
19	47527	98.897785705926	1
19	47575	98.997783774602	1
19	47625	99.097794844909	1
19	47673	99.197792916847	1
19	47721	99.297790990415	1
19	47769	99.397789065614	1
19	47817	99.497787142444	1
19	47865	99.597785220904	1
19	47913	99.697783300995	1
19	47961	99.797794382717	1
19	48009	99.897792466069	1
19	48057	99.997790551053	1
20	544	2	0
20	1026	3	0
20	1508	4	0
20	1990	5	0
20	2472	6	0
20	2954	7	0
20	3436	8	0
20	3918	9	0
20	4401	10	0
20	4911	11	0
20	5403	12	0
20	5895	13	0
20	6387	14	0
20	6879	15	0
20	7371	16	0
20	7863	17	0
20	8355	18	0
20	8847	19	0
20	9339	20	0
20	9831	21	0
20	10323	22	0
20	10815	23	0
20	11307	24	0
20	11799	25	0
20	12291	26	0
20	12783	27	0
20	13275	28	0
20	13767	29	0
20	14319	30	0
20	14801	31	0
20	15283	32	0
20	15765	33	0
20	16247	34	0
20	16729	35	0
20	17211	36	0
20	17693	37	0
20	18175	38	0
20	18657	39	0
20	19139	40	0
20	19621	41	0
20	20103	42	0
20	20585	43	0
20	21067	44	0
20	21549	45	0
20	22031	46	0
20	22513	47	0
20	22995	48	0
20	23477	49	0
20	23959	50	0
20	24441	51	0
20	24923	52	0
20	25405	53	0
20	25887	54	0
20	26369	55	0
20	26851	56	0
20	27333	57	0
20	27815	58	0
20	28297	59	0
20	28779	60	0
20	29261	61	0
20	29743	62	0
20	30225	63	0
20	30707	64	0
20	31189	65	0
20	31671	66	0
20	32153	67	0
20	32635	68	0
20	33117	69	0
20	33599	70	0
20	34081	71	0
20	34563	72	0
20	35045	73	0
20	35527	74	0
20	36009	75	0
20	36491	76	0
20	36973	77	0
20	37455	78	0
20	37937	79	0
20	38419	80	0
20	38901	81	0
20	39383	82	0
20	39865	83	0
20	40347	84	0
20	40829	85	0
20	41311	86	0
20	41793	87	0
20	42275	88	0
20	42757	89	0
20	43239	90	0
20	43721	91	0
20	44203	92	0
20	44685	93	0
20	45167	94	0
20	45649	95	0
20	46131	96	0
20	46613	97	0
20	47095	98	0
20	47577	99	0
20	48059	100	0
21	544	2	0.005625
21	1026	3	0.00625
21	1508	4	0.00625
21	1990	5	0.00625
21	2472	6	0.00625
21	2954	7	0.00625
21	3436	8	0.00625
21	3918	9	0.00625
21	4401	10	0.00625
21	4911	11	0.006299
21	5403	12	0.00625
21	5895	13	0.00625
21	6387	14	0.00625
21	6879	15	0.00625
21	7371	16	0.00625
21	7863	17	0.00625
21	8355	18	0.00625
21	8847	19	0.00625
21	9339	20	0.00625
21	9831	21	0.00625
21	10323	22	0.00625
21	10815	23	0.00625
21	11307	24	0.00625
21	11799	25	0.00625
21	12291	26	0.00625
21	12783	27	0.00625
21	13275	28	0.00625
21	13767	29	0.00625
21	14319	30	0.006539046036
21	14801	31	0.00625
21	15283	32	0.00625
21	15765	33	0.00625
21	16247	34	0.00625
21	16729	35	0.00625
21	17211	36	0.00625
21	17693	37	0.00625
21	18175	38	0.00625
21	18657	39	0.00625
21	19139	40	0.00625
21	19621	41	0.00625
21	20103	42	0.00625
21	20585	43	0.00625
21	21067	44	0.00625
21	21549	45	0.00625
21	22031	46	0.00625
21	22513	47	0.00625
21	22995	48	0.00625
21	23477	49	0.00625
21	23959	50	0.00625
21	24441	51	0.00625
21	24923	52	0.00625
21	25405	53	0.00625
21	25887	54	0.00625
21	26369	55	0.00625
21	26851	56	0.00625
21	27333	57	0.00625
21	27815	58	0.00625
21	28297	59	0.00625
21	28779	60	0.00625
21	29261	61	0.00625
21	29743	62	0.00625
21	30225	63	0.00625
21	30707	64	0.00625
21	31189	65	0.00625
21	31671	66	0.00625
21	32153	67	0.00625
21	32635	68	0.00625
21	33117	69	0.00625
21	33599	70	0.00625
21	34081	71	0.00625
21	34563	72	0.00625
21	35045	73	0.00625
21	35527	74	0.00625
21	36009	75	0.00625
21	36491	76	0.00625
21	36973	77	0.00625
21	37455	78	0.00625
21	37937	79	0.00625
21	38419	80	0.00625
21	38901	81	0.00625
21	39383	82	0.00625
21	39865	83	0.00625
21	40347	84	0.00625
21	40829	85	0.00625
21	41311	86	0.00625
21	41793	87	0.00625
21	42275	88	0.00625
21	42757	89	0.00625
21	43239	90	0.00625
21	43721	91	0.00625
21	44203	92	0.00625
21	44685	93	0.00625
21	45167	94	0.00625
21	45649	95	0.00625
21	46131	96	0.00625
21	46613	97	0.00625
21	47095	98	0.00625
21	47577	99	0.00625
21	48059	100	0.00625
22	544	2	0
22	1026	3	0
22	1508	4	0
22	1990	5	0
22	2472	6	0
22	2954	7	0
22	3436	8	0
22	3918	9	0
22	4401	10	0
22	4911	11	0
22	5403	12	0
22	5895	13	0
22	6387	14	0
22	6879	15	0
22	7371	16	0
22	7863	17	0
22	8355	18	0
22	8847	19	0
22	9339	20	0
22	9831	21	0
22	10323	22	0
22	10815	23	0
22	11307	24	0
22	11799	25	0
22	12291	26	0
22	12783	27	0
22	13275	28	0
22	13767	29	0
22	14319	30	0
22	14801	31	0
22	15283	32	0
22	15765	33	0
22	16247	34	0
22	16729	35	0
22	17211	36	0
22	17693	37	0
22	18175	38	0
22	18657	39	0
22	19139	40	0
22	19621	41	0
22	20103	42	0
22	20585	43	0
22	21067	44	0
22	21549	45	0
22	22031	46	0
22	22513	47	0
22	22995	48	0
22	23477	49	0
22	23959	50	0
22	24441	51	0
22	24923	52	0
22	25405	53	0
22	25887	54	0
22	26369	55	0
22	26851	56	0
22	27333	57	0
22	27815	58	0
22	28297	59	0
22	28779	60	0
22	29261	61	0
22	29743	62	0
22	30225	63	0
22	30707	64	0
22	31189	65	0
22	31671	66	0
22	32153	67	0
22	32635	68	0
22	33117	69	0
22	33599	70	0
22	34081	71	0
22	34563	72	0
22	35045	73	0
22	35527	74	0
22	36009	75	0
22	36491	76	0
22	36973	77	0
22	37455	78	0
22	37937	79	0
22	38419	80	0
22	38901	81	0
22	39383	82	0
22	39865	83	0
22	40347	84	0
22	40829	85	0
22	41311	86	0
22	41793	87	0
22	42275	88	0
22	42757	89	0
22	43239	90	0
22	43721	91	0
22	44203	92	0
22	44685	93	0
22	45167	94	0
22	45649	95	0
22	46131	96	0
22	46613	97	0
22	47095	98	0
22	47577	99	0
22	48059	100	0
23	545	2	1
23	1027	3	1
23	1509	4	1
23	1991	5	1
23	2473	6	1
23	2955	7	1
23	3437	8	1
23	3919	9	1
23	4402	10	1
23	4912	11	1
23	5404	12	1
23	5896	13	1
23	6388	14	1
23	6880	15	1
23	7372	16	1
23	7864	17	1
23	8356	18	1
23	8848	19	1
23	9340	20	1
23	9832	21	1
23	10324	22	1
23	10816	23	1
23	11308	24	1
23	11800	25	1
23	12292	26	1
23	12784	27	1
23	13276	28	1
23	13768	29	1
23	14320	30	1
23	14802	31	1
23	15284	32	1
23	15766	33	1
23	16248	34	1
23	16730	35	1
23	17212	36	1
23	17694	37	1
23	18176	38	1
23	18658	39	1
23	19140	40	1
23	19622	41	1
23	20104	42	1
23	20586	43	1
23	21068	44	1
23	21550	45	1
23	22032	46	1
23	22514	47	1
23	22996	48	1
23	23478	49	1
23	23960	50	1
23	24442	51	1
23	24924	52	1
23	25406	53	1
23	25888	54	1
23	26370	55	1
23	26852	56	1
23	27334	57	1
23	27816	58	1
23	28298	59	1
23	28780	60	1
23	29262	61	1
23	29744	62	1
23	30226	63	1
23	30708	64	1
23	31190	65	1
23	31672	66	1
23	32154	67	1
23	32636	68	1
23	33118	69	1
23	33600	70	1
23	34082	71	1
23	34564	72	1
23	35046	73	1
23	35528	74	1
23	36010	75	1
23	36492	76	1
23	36974	77	1
23	37456	78	1
23	37938	79	1
23	38420	80	1
23	38902	81	1
23	39384	82	1
23	39866	83	1
23	40348	84	1
23	40830	85	1
23	41312	86	1
23	41794	87	1
23	42276	88	1
23	42758	89	1
23	43240	90	1
23	43722	91	1
23	44204	92	1
23	44686	93	1
23	45168	94	1
23	45650	95	1
23	46132	96	1
23	46614	97	1
23	47096	98	1
23	47578	99	1
23	48060	100	1
24	545	2	0.005625
24	1027	3	0.00625
24	1509	4	0.00625
24	1991	5	0.00625
24	2473	6	0.00625
24	2955	7	0.00625
24	3437	8	0.00625
24	3919	9	0.00625
24	4402	10	0.00625
24	4912	11	0.006298
24	5404	12	0.00625
24	5896	13	0.00625
24	6388	14	0.00625
24	6880	15	0.00625
24	7372	16	0.00625
24	7864	17	0.00625
24	8356	18	0.00625
24	8848	19	0.00625
24	9340	20	0.00625
24	9832	21	0.00625
24	10324	22	0.00625
24	10816	23	0.00625
24	11308	24	0.00625
24	11800	25	0.00625
24	12292	26	0.00625
24	12784	27	0.00625
24	13276	28	0.00625
24	13768	29	0.00625
24	14320	30	0.006539046036
24	14802	31	0.00625
24	15284	32	0.00625
24	15766	33	0.00625
24	16248	34	0.00625
24	16730	35	0.00625
24	17212	36	0.00625
24	17694	37	0.00625
24	18176	38	0.00625
24	18658	39	0.00625
24	19140	40	0.00625
24	19622	41	0.00625
24	20104	42	0.00625
24	20586	43	0.00625
24	21068	44	0.00625
24	21550	45	0.00625
24	22032	46	0.00625
24	22514	47	0.00625
24	22996	48	0.00625
24	23478	49	0.00625
24	23960	50	0.00625
24	24442	51	0.00625
24	24924	52	0.00625
24	25406	53	0.00625
24	25888	54	0.00625
24	26370	55	0.00625
24	26852	56	0.00625
24	27334	57	0.00625
24	27816	58	0.00625
24	28298	59	0.00625
24	28780	60	0.00625
24	29262	61	0.00625
24	29744	62	0.00625
24	30226	63	0.00625
24	30708	64	0.00625
24	31190	65	0.00625
24	31672	66	0.00625
24	32154	67	0.00625
24	32636	68	0.00625
24	33118	69	0.00625
24	33600	70	0.00625
24	34082	71	0.00625
24	34564	72	0.00625
24	35046	73	0.00625
24	35528	74	0.00625
24	36010	75	0.00625
24	36492	76	0.00625
24	36974	77	0.00625
24	37456	78	0.00625
24	37938	79	0.00625
24	38420	80	0.00625
24	38902	81	0.00625
24	39384	82	0.00625
24	39866	83	0.00625
24	40348	84	0.00625
24	40830	85	0.00625
24	41312	86	0.00625
24	41794	87	0.00625
24	42276	88	0.00625
24	42758	89	0.00625
24	43240	90	0.00625
24	43722	91	0.00625
24	44204	92	0.00625
24	44686	93	0.00625
24	45168	94	0.00625
24	45650	95	0.00625
24	46132	96	0.00625
24	46614	97	0.00625
24	47096	98	0.00625
24	47578	99	0.00625
24	48060	100	0.00625
25	545	2	0
25	1027	3	0
25	1509	4	0
25	1991	5	0
25	2473	6	0
25	2955	7	0
25	3437	8	0
25	3919	9	0
25	4402	10	0
25	4912	11	0
25	5404	12	0
25	5896	13	0
25	6388	14	0
25	6880	15	0
25	7372	16	0
25	7864	17	0
25	8356	18	0
25	8848	19	0
25	9340	20	0
25	9832	21	0
25	10324	22	0
25	10816	23	0
25	11308	24	0
25	11800	25	0
25	12292	26	0
25	12784	27	0
25	13276	28	0
25	13768	29	0
25	14320	30	0
25	14802	31	0
25	15284	32	0
25	15766	33	0
25	16248	34	0
25	16730	35	0
25	17212	36	0
25	17694	37	0
25	18176	38	0
25	18658	39	0
25	19140	40	0
25	19622	41	0
25	20104	42	0
25	20586	43	0
25	21068	44	0
25	21550	45	0
25	22032	46	0
25	22514	47	0
25	22996	48	0
25	23478	49	0
25	23960	50	0
25	24442	51	0
25	24924	52	0
25	25406	53	0
25	25888	54	0
25	26370	55	0
25	26852	56	0
25	27334	57	0
25	27816	58	0
25	28298	59	0
25	28780	60	0
25	29262	61	0
25	29744	62	0
25	30226	63	0
25	30708	64	0
25	31190	65	0
25	31672	66	0
25	32154	67	0
25	32636	68	0
25	33118	69	0
25	33600	70	0
25	34082	71	0
25	34564	72	0
25	35046	73	0
25	35528	74	0
25	36010	75	0
25	36492	76	0
25	36974	77	0
25	37456	78	0
25	37938	79	0
25	38420	80	0
25	38902	81	0
25	39384	82	0
25	39866	83	0
25	40348	84	0
25	40830	85	0
25	41312	86	0
25	41794	87	0
25	42276	88	0
25	42758	89	0
25	43240	90	0
25	43722	91	0
25	44204	92	0
25	44686	93	0
25	45168	94	0
25	45650	95	0
25	46132	96	0
25	46614	97	0
25	47096	98	0
25	47578	99	0
25	48060	100	0

