file 1616849 1720703455                                         
version 3
run BreakRanksNoGui-280-20240711-15:10:49-294331
attr configname BreakRanksNoGui
attr datetime 20240711-15:10:49
attr datetimef 20240711-151049
attr experiment BreakRanksNoGui
attr inifile omnetpp.ini
attr iterationvars "$nCars=6, $platoonSize=4, $nLanes=1, $ploegH=0.5, $controller=1, $headway=0.1, $leaderHeadway=1.2, $leaderSpeed=130, $breakRanksSafetyDistance=15, $minSpeed=120, $maxSpeed=140, $beaconInterval=0.1, $priority=4, $packetSize=200, $sController=\"CACC\", $0=2, $1=0"
attr iterationvarsd nCars=6/platoonSize=4/nLanes=1/ploegH=0.5/controller=1/headway=0.1/leaderHeadway=1.2/leaderSpeed=130/breakRanksSafetyDistance=15/minSpeed=120/maxSpeed=140/beaconInterval=0.1/priority=4/packetSize=200/sController=CACC/2/0
attr iterationvarsf nCars=6,platoonSize=4,nLanes=1,ploegH=0.5,controller=1,headway=0.1,leaderHeadway=1.2,leaderSpeed=130,breakRanksSafetyDistance=15,minSpeed=120,maxSpeed=140,beaconInterval=0.1,priority=4,packetSize=200,sController=CACC,2,0-
attr measurement "$nCars=6, $platoonSize=4, $nLanes=1, $ploegH=0.5, $controller=1, $headway=0.1, $leaderHeadway=1.2, $leaderSpeed=130, $breakRanksSafetyDistance=15, $minSpeed=120, $maxSpeed=140, $beaconInterval=0.1, $priority=4, $packetSize=200, $sController=\"CACC\", $0=2, $1=0"
attr network Highway
attr processid 294331
attr repetition 0
attr replication #0
attr resultdir results
attr runnumber 280
attr seedset 0
itervar beaconInterval 0.1
itervar breakRanksSafetyDistance 15
itervar controller 1
itervar headway 0.1
itervar leaderHeadway 1.2
itervar leaderSpeed 130
itervar maxSpeed 140
itervar minSpeed 120
itervar nCars 6
itervar nLanes 1
itervar packetSize 200
itervar platoonSize 4
itervar ploegH 0.5
itervar priority 4
itervar sController "\"CACC\""
config image-path ../../../veins/images
config repeat 10
config extends BreakRanks
config *.manager.command "\"sumo\""
config *.manager.ignoreGuiCommands true
config output-vector-file "results/BreakRanks_1_0.1_130_15_4 /result_0.vec"
config output-scalar-file "results/BreakRanks_1_0.1_130_15_4 /result_0.sca"
config extends Platooning
config *.node[*].scenario_type "\"BreakRanksScenario\""
config *.manager.command "\"sumo-gui\""
config *.node[*].scenario_type "\"SimpleScenario\""
config cmdenv-express-mode true
config cmdenv-autoflush true
config cmdenv-status-frequency 15s
config num-rngs 6
config network Highway
config debug-on-errors true
config print-undisposed true
config *.playgroundSizeX 65000m
config *.playgroundSizeY 25000m
config *.playgroundSizeZ 50m
config sim-time-limit "100 s"
config *.annotations.draw false
config *.obstacles.debug false
config *.world.useTorus false
config *.world.use2D false
config *.manager.updateInterval 0.01s
config *.manager.host "\"localhost\""
config *.manager.moduleType "\"org.car2x.plexe.PlatoonCar\""
config *.manager.moduleName "\"node\""
config *.manager.moduleDisplayString "\"\""
config *.manager.autoShutdown true
config *.manager.margin 25
config *.connectionManager.sendDirect true
config *.connectionManager.maxInterfDist 2600m
config *.connectionManager.drawMaxIntfDist false
config *.**.nic.mac1609_4.useServiceChannel false
config *.**.nic.mac1609_4.txPower 100mW
config *.**.nic.mac1609_4.bitrate 6Mbps
config *.**.nic.mac1609_4.useAcks true
config *.**.nic.mac1609_4.ackErrorRate 0.0
config *.**.nic.mac1609_4.frameErrorRate 0.0
config *.**.nic.phy80211p.minPowerLevel -94dBm
config *.**.nic.phy80211p.maxTXPower 100mW
config *.**.nic.phy80211p.useNoiseFloor true
config *.**.nic.phy80211p.noiseFloor -95dBm
config *.**.nic.phy80211p.decider "xmldoc(\"config.xml\")"
config *.**.nic.phy80211p.analogueModels "xmldoc(\"config.xml\")"
config *.**.nic.phy80211p.usePropagationDelay true
config *.node[*].mobility.x 0
config *.node[*].mobility.y 0
config *.node[*].mobility.z 1.895
config seed-set 0
config **.seed 0
config *.node[*].prot.rng-0 2
config *.node[*].appl.rng-0 3
config *.node[*].scenario.rng-0 4
config **.traffic.rng-0 5
config *.manager.configFile "\"./sumocfg/freeway.sumo.cfg\""
config *.manager.launchConfig "xmldoc(\"./sumocfg/freeway.launchd.xml\")"
config **.numberOfCars 6
config **.numberOfCarsPerPlatoon 4
config **.numberOfLanes 1
config *.node[*].helper_type "\"PositionHelper\""
config *.node[*].scenario.caccC1 0.5
config *.node[*].scenario.caccXi 1
config *.node[*].scenario.caccOmegaN "0.2 Hz"
config *.node[*].scenario.caccSpacing "2 m"
config *.node[*].scenario.engineTau "0.5 s"
config *.node[*].scenario.ploegH 0.5s
config *.node[*].scenario.ploegKp 0.2
config *.node[*].scenario.ploegKd 0.7
config *.node[*].scenario.useRealisticEngine false
config *.node[*].scenario.useControllerAcceleration true
config *.node[*].scenario.nLanes 1
config **.numericController 1
config **.headway 0.1s
config *.node[*].scenario.accHeadway 0.1s
config *.node[*].scenario.leaderHeadway 1.2s
config *.node[*].scenario.leaderSpeed 130kmph
config *.node[*].appl_type "\"SimplePlatooningApp\""
config *.node[*].appl.*.scalar-recording true
config *.node[*].appl.*.vector-recording true
config *.node[0].appl.breakRanksSafetyDistance 15m
config *.node[*].appl.minSpeed 120kmph
config *.node[*].appl.maxSpeed 140kmph
config *.node[*].protocol_type "\"SimplePlatooningBeaconing\""
config *.node[*].prot.*.scalar-recording true
config *.node[*].prot.*.vector-recording true
config *.node[*].prot.beaconingInterval 0.1s
config *.node[*].prot.priority 4
config *.node[*].prot.packetSize 200
config **.traffic_type "\"PlatoonsTrafficManager\""
config **.traffic.platoonInsertTime "1 s"
config **.traffic.platoonInsertSpeed 130kmph
config **.traffic.nCars 6
config **.traffic.platoonSize 4
config **.traffic.nLanes 1
config **.traffic.platooningVType "\"vtypeauto\""
config **.traffic.controller "\"CACC\""
config **.traffic.platoonInsertDistance 2m
config **.traffic.platoonInsertHeadway 0s
config **.traffic.platoonLeaderHeadway 1.2s
config **.scalar-recording false
config **.vector-recording false

vector 0 Highway.node[0].appl distance ETV
vector 1 Highway.node[0].appl relativeSpeed ETV
vector 2 Highway.node[0].appl nodeId ETV
vector 3 Highway.node[0].appl acceleration ETV
vector 4 Highway.node[0].appl controllerAcceleration ETV
vector 5 Highway.node[0].appl speed ETV
vector 6 Highway.node[0].appl posx ETV
vector 7 Highway.node[0].appl posy ETV
vector 8 Highway.node[1].appl distance ETV
vector 9 Highway.node[1].appl relativeSpeed ETV
vector 10 Highway.node[1].appl nodeId ETV
vector 11 Highway.node[1].appl acceleration ETV
vector 12 Highway.node[1].appl controllerAcceleration ETV
vector 13 Highway.node[1].appl speed ETV
vector 14 Highway.node[1].appl posx ETV
vector 15 Highway.node[1].appl posy ETV
vector 16 Highway.node[2].appl distance ETV
vector 17 Highway.node[2].appl relativeSpeed ETV
vector 18 Highway.node[2].appl nodeId ETV
vector 19 Highway.node[2].appl acceleration ETV
vector 20 Highway.node[2].appl controllerAcceleration ETV
vector 21 Highway.node[2].appl speed ETV
vector 22 Highway.node[2].appl posx ETV
vector 23 Highway.node[2].appl posy ETV
vector 24 Highway.node[3].appl distance ETV
vector 25 Highway.node[3].appl relativeSpeed ETV
vector 26 Highway.node[3].appl nodeId ETV
vector 27 Highway.node[3].appl acceleration ETV
vector 28 Highway.node[3].appl controllerAcceleration ETV
vector 29 Highway.node[3].appl speed ETV
vector 30 Highway.node[3].appl posx ETV
vector 31 Highway.node[3].appl posy ETV
vector 32 Highway.node[4].appl distance ETV
vector 33 Highway.node[4].appl relativeSpeed ETV
vector 34 Highway.node[4].appl nodeId ETV
vector 35 Highway.node[4].appl acceleration ETV
vector 36 Highway.node[4].appl controllerAcceleration ETV
vector 37 Highway.node[4].appl speed ETV
vector 38 Highway.node[4].appl posx ETV
vector 39 Highway.node[4].appl posy ETV
vector 40 Highway.node[5].appl distance ETV
vector 41 Highway.node[5].appl relativeSpeed ETV
vector 42 Highway.node[5].appl nodeId ETV
vector 43 Highway.node[5].appl acceleration ETV
vector 44 Highway.node[5].appl controllerAcceleration ETV
vector 45 Highway.node[5].appl speed ETV
vector 46 Highway.node[5].appl posx ETV
vector 47 Highway.node[5].appl posy ETV
vector 48 Highway.node[3].prot frontDelay ETV
vector 49 Highway.node[3].prot frontDelayId ETV
vector 50 Highway.node[2].prot frontDelay ETV
vector 51 Highway.node[2].prot frontDelayId ETV
vector 52 Highway.node[1].prot leaderDelay ETV
vector 53 Highway.node[1].prot leaderDelayId ETV
vector 54 Highway.node[1].prot frontDelay ETV
vector 55 Highway.node[1].prot frontDelayId ETV
vector 56 Highway.node[2].prot leaderDelay ETV
vector 57 Highway.node[2].prot leaderDelayId ETV
vector 58 Highway.node[3].prot leaderDelay ETV
vector 59 Highway.node[3].prot leaderDelayId ETV
vector 60 Highway.node[5].prot leaderDelay ETV
vector 61 Highway.node[5].prot leaderDelayId ETV
vector 62 Highway.node[5].prot frontDelay ETV
vector 63 Highway.node[5].prot frontDelayId ETV
vector 64 Highway.node[0].prot nodeId ETV
vector 65 Highway.node[0].prot busyTime ETV
vector 66 Highway.node[0].prot collisions ETV
vector 67 Highway.node[1].prot nodeId ETV
vector 68 Highway.node[1].prot busyTime ETV
vector 69 Highway.node[1].prot collisions ETV
vector 70 Highway.node[2].prot nodeId ETV
vector 71 Highway.node[2].prot busyTime ETV
vector 72 Highway.node[2].prot collisions ETV
vector 73 Highway.node[3].prot nodeId ETV
vector 74 Highway.node[3].prot busyTime ETV
vector 75 Highway.node[3].prot collisions ETV
vector 76 Highway.node[4].prot nodeId ETV
vector 77 Highway.node[4].prot busyTime ETV
vector 78 Highway.node[4].prot collisions ETV
vector 79 Highway.node[5].prot nodeId ETV
vector 80 Highway.node[5].prot busyTime ETV
vector 81 Highway.node[5].prot collisions ETV
0	9631 17194 113 188496 1.11 99.91 989 -1 9323.17 110901.04 1043058963.1868
1	26825 16276 113 188496 1.11 99.91 989 -0.000109634 0 -0.00100549659 9.6632334774896e-08
2	43101 16145 113 188496 1.11 99.91 989 0 0 0 0
3	59246 18433 113 188496 1.11 99.91 989 -3.14892e-05 0.000707784 0.010991577126781 6.0508064149601e-06
4	77679 26091 113 188496 1.11 99.91 989 -4.89399e-05 0.00109259 0.010614843047836 8.6815283230331e-06
5	103770 22072 113 188496 1.11 99.91 989 36.11 36.1111 35713.866699999 1289666.6073546
6	125842 21942 113 188496 1.11 99.91 989 29.6899 3597.47 1793627.8608 4304090245.1827
7	147784 21090 113 188496 1.11 99.91 989 242.45 242.45 239783.05 58135400.472499
8	168874 19873 114 188497 1.11 99.91 989 -1 14.9837 5573.21473 79262.710854252
9	188747 20648 114 188497 1.11 99.91 989 -1.58028e-05 1.03507 129.83830183172 88.991722718681
10	209395 17134 114 188497 1.11 99.91 989 1 1 989 989
11	226529 24520 114 188497 1.11 99.91 989 -0.393657 0.573737 8.9235917155137 7.5417972315579
12	251049 26283 114 188497 1.11 99.91 989 -0.518252 0.889519 9.0745247750564 10.086173578678
13	277332 21357 114 188497 1.11 99.91 989 35.076 37.0397 35953.048 1307355.8789557
14	298689 22981 114 188497 1.11 99.91 989 23.6899 3615.34 1784965.4862 4285695459.2636
15	321670 22079 114 188497 1.11 99.91 989 242.45 245.75 241185.55 58820100.9725
16	343749 22941 115 188498 1.11 99.91 989 2 45.1467 23695.85682 840352.91837856
17	366690 24621 115 188498 1.11 99.91 989 0 0.975184 241.63726986581 132.5547906918
18	391311 17134 115 188498 1.11 99.91 989 2 2 1978 3956
19	408445 25376 115 188498 1.11 99.91 989 -0.611586 0.129319 -0.135938547793 14.614057899882
20	433821 25372 115 188498 1.11 99.91 989 -0.931383 0.130153 0.65200673753361 17.863702418188
21	459193 22945 115 188498 1.11 99.91 989 34.2926 36.1111 35342.3898 1263214.1606268
22	482138 22948 115 188498 1.11 99.91 989 17.6899 3548.32 1757721.8178 4152620046.8365
23	505086 22079 115 188498 1.11 99.91 989 242.45 242.45 239783.05 58135400.472499
24	527165 22929 116 188499 1.11 99.91 989 2 44.8061 21151.02514 684681.88190626
25	550094 24346 116 188499 1.11 99.91 989 0 2.45937 428.08716397483 481.53362322699
26	574440 17134 116 188499 1.11 99.91 989 3 3 2967 8901
27	591574 25017 116 188499 1.11 99.91 989 -1.77637 0.342354 -0.64376515066499 66.580304000126
28	616591 25036 116 188499 1.11 99.91 989 -2.51183 0.366426 0.71201771023203 83.103736307348
29	641627 22963 116 188499 1.11 99.91 989 32.7112 36.1111 34914.3054 1233356.867152
30	664590 22964 116 188499 1.11 99.91 989 11.6899 3499.51 1732614.6719 4034435416.8641
31	687554 22079 116 188499 1.11 99.91 989 242.45 242.45 239783.05 58135400.472499
32	709633 18123 117 188500 1.11 99.91 989 -1 -1 -989 989
33	727756 17134 117 188500 1.11 99.91 989 0 0 0 0
34	744890 17134 117 188500 1.11 99.91 989 4 4 3956 15824
35	762024 19422 117 188500 1.11 99.91 989 -3.14892e-05 0.000707784 0.010991577126781 6.0508064149601e-06
36	781446 27080 117 188500 1.11 99.91 989 -4.89399e-05 0.00109259 0.010614843047836 8.6815283230331e-06
37	808526 23061 117 188500 1.11 99.91 989 36.11 36.1111 35713.866699999 1289666.6073546
38	831587 22866 117 188500 1.11 99.91 989 9362.86 12930.6 11024130.78 123934381181
39	854453 22079 117 188500 1.11 99.91 989 242.45 242.45 239783.05 58135400.472499
40	876532 22551 118 188501 1.11 99.91 989 -1 126.74 40165.1542 3233089.248588
41	899083 22960 118 188501 1.11 99.91 989 -1.82116e-05 2.11127 1098.0076571865 2134.6347136395
42	922043 17134 118 188501 1.11 99.91 989 5 5 4945 24725
43	939177 24144 118 188501 1.11 99.91 989 -1.24962 0.0836412 -21.058234256244 23.744797493533
44	963321 26320 118 188501 1.11 99.91 989 -1.5 0.086371 -20.096100136065 30.708135514108
45	989641 20842 118 188501 1.11 99.91 989 33.9136 36.1111 34465.4129 1201940.2563078
46	1010483 22988 118 188501 1.11 99.91 989 9356.86 12799.9 10978172.88 122838548030.83
47	1033471 22079 118 188501 1.11 99.91 989 242.45 245.75 240053.65 58267507.392499
48	1055550 39631 334 188523 1.213888140098 99.913881308462 988 0.099992138111 0.100011767758 98.799991288448 9.879998275352
49	1095181 26875 334 188523 1.213888140098 99.913881308462 988 3 3 2964 8892
50	1122056 39623 369 188564 1.229638160112 99.929644593405 988 0.09999350109 0.10001177217 98.800004553377 9.8800009285546
51	1161679 26870 369 188564 1.229638160112 99.929644593405 988 2 2 1976 3952
52	1188549 39641 400 188595 1.254488180126 99.954481490977 988 0.099998120084 0.10001177054 98.800004430935 9.8800009038118
53	1228190 26885 400 188595 1.254488180126 99.954481490977 988 1 1 988 988
54	1255075 39641 400 188595 1.254488180126 99.954481490977 988 0.099998120084 0.10001177054 98.800004430935 9.8800009038118
55	1294716 26885 400 188595 1.254488180126 99.954481490977 988 1 1 988 988
56	1321601 39636 406 188601 1.25448820014 99.954481594143 988 0.099998120084 0.100011770255 98.800004514087 9.8800009204422
57	1361237 26876 406 188601 1.25448820014 99.954481594143 988 2 2 1976 3952
58	1388113 39647 412 188607 1.254488220154 99.954481756951 988 0.099998120084 0.100011770273 98.800004656881 9.880000949001
59	1427760 26905 412 188607 1.254488220154 99.954481756951 988 3 3 2964 8892
60	1454665 39587 431 188626 1.265731060042 99.965735100851 988 0.099997040028 0.1000108684 98.800001080837 9.8800002434419
61	1494252 26905 431 188626 1.265731060042 99.965735100851 988 5 5 4940 24700
62	1521157 39587 431 188626 1.265731060042 99.965735100851 988 0.099997040028 0.1000108684 98.800001080837 9.8800002434419
63	1560744 26905 431 188626 1.265731060042 99.965735100851 988 5 5 4940 24700
64	1587649 1421 1752 188631 2 100 99 0 0 0 0
65	1589070 2026 1752 188631 2 100 99 0.010929 0.013069758928 1.235865758928 0.015430733472436
66	1591096 1421 1752 188631 2 100 99 0 0 0 0
67	1592517 1421 1753 188632 2 100 99 1 1 99 99
68	1593938 2024 1753 188632 2 100 99 0.010929 0.01297 1.23573412609 0.01542733160031
69	1595962 1421 1753 188632 2 100 99 0 0 0 0
70	1597383 1421 1754 188633 2 100 99 2 2 198 396
71	1598804 2025 1754 188633 2 100 99 0.010929 0.01297 1.235734252586 0.015427334796912
72	1600829 1421 1754 188633 2 100 99 0 0 0 0
73	1602250 1421 1755 188634 2 100 99 3 3 297 891
74	1603671 2026 1755 188634 2 100 99 0.010928 0.013003379186 1.235733379186 0.015427340706255
75	1605697 1421 1755 188634 2 100 99 0 0 0 0
76	1607118 1421 1756 188635 2 100 99 4 4 396 1584
77	1608539 2023 1756 188635 2 100 99 0.005313 0.00653912609 0.61815112609 0.0038606655400209
78	1610562 1421 1756 188635 2 100 99 0 0 0 0
79	1611983 1421 1757 188636 2 100 99 5 5 495 2475
80	1613404 2023 1757 188636 2 100 99 0.005312 0.00653912609 0.61814912609 0.0038606423180209
81	1615427 1421 1757 188636 2 100 99 0 0 0 0

