file 5054065 1720718802                                         
version 3
run BreakRanksNoGui-1601-20240711-19:26:23-306103
attr configname BreakRanksNoGui
attr datetime 20240711-19:26:23
attr datetimef 20240711-192623
attr experiment BreakRanksNoGui
attr inifile omnetpp.ini
attr iterationvars "$nCars=16, $platoonSize=9, $nLanes=1, $ploegH=0.5, $controller=1, $headway=0.1, $leaderHeadway=1.2, $leaderSpeed=110, $breakRanksSafetyDistance=15, $minSpeed=100, $maxSpeed=120, $beaconInterval=0.1, $priority=4, $packetSize=200, $sController=\"CACC\", $0=2, $1=0"
attr iterationvarsd nCars=16/platoonSize=9/nLanes=1/ploegH=0.5/controller=1/headway=0.1/leaderHeadway=1.2/leaderSpeed=110/breakRanksSafetyDistance=15/minSpeed=100/maxSpeed=120/beaconInterval=0.1/priority=4/packetSize=200/sController=CACC/2/0
attr iterationvarsf nCars=16,platoonSize=9,nLanes=1,ploegH=0.5,controller=1,headway=0.1,leaderHeadway=1.2,leaderSpeed=110,breakRanksSafetyDistance=15,minSpeed=100,maxSpeed=120,beaconInterval=0.1,priority=4,packetSize=200,sController=CACC,2,0-
attr measurement "$nCars=16, $platoonSize=9, $nLanes=1, $ploegH=0.5, $controller=1, $headway=0.1, $leaderHeadway=1.2, $leaderSpeed=110, $breakRanksSafetyDistance=15, $minSpeed=100, $maxSpeed=120, $beaconInterval=0.1, $priority=4, $packetSize=200, $sController=\"CACC\", $0=2, $1=0"
attr network Highway
attr processid 306103
attr repetition 1
attr replication #1
attr resultdir results
attr runnumber 1601
attr seedset 1
itervar beaconInterval 0.1
itervar breakRanksSafetyDistance 15
itervar controller 1
itervar headway 0.1
itervar leaderHeadway 1.2
itervar leaderSpeed 110
itervar maxSpeed 120
itervar minSpeed 100
itervar nCars 16
itervar nLanes 1
itervar packetSize 200
itervar platoonSize 9
itervar ploegH 0.5
itervar priority 4
itervar sController "\"CACC\""
config image-path ../../../veins/images
config repeat 10
config extends BreakRanks
config *.manager.command "\"sumo\""
config *.manager.ignoreGuiCommands true
config output-vector-file "results/BreakRanks_1_0.1_110_15_9 /result_1.vec"
config output-scalar-file "results/BreakRanks_1_0.1_110_15_9 /result_1.sca"
config extends Platooning
config *.node[*].scenario_type "\"BreakRanksScenario\""
config *.manager.command "\"sumo-gui\""
config *.node[*].scenario_type "\"SimpleScenario\""
config cmdenv-express-mode true
config cmdenv-autoflush true
config cmdenv-status-frequency 15s
config num-rngs 6
config network Highway
config debug-on-errors true
config print-undisposed true
config *.playgroundSizeX 65000m
config *.playgroundSizeY 25000m
config *.playgroundSizeZ 50m
config sim-time-limit "100 s"
config *.annotations.draw false
config *.obstacles.debug false
config *.world.useTorus false
config *.world.use2D false
config *.manager.updateInterval 0.01s
config *.manager.host "\"localhost\""
config *.manager.moduleType "\"org.car2x.plexe.PlatoonCar\""
config *.manager.moduleName "\"node\""
config *.manager.moduleDisplayString "\"\""
config *.manager.autoShutdown true
config *.manager.margin 25
config *.connectionManager.sendDirect true
config *.connectionManager.maxInterfDist 2600m
config *.connectionManager.drawMaxIntfDist false
config *.**.nic.mac1609_4.useServiceChannel false
config *.**.nic.mac1609_4.txPower 100mW
config *.**.nic.mac1609_4.bitrate 6Mbps
config *.**.nic.mac1609_4.useAcks true
config *.**.nic.mac1609_4.ackErrorRate 0.0
config *.**.nic.mac1609_4.frameErrorRate 0.0
config *.**.nic.phy80211p.minPowerLevel -94dBm
config *.**.nic.phy80211p.maxTXPower 100mW
config *.**.nic.phy80211p.useNoiseFloor true
config *.**.nic.phy80211p.noiseFloor -95dBm
config *.**.nic.phy80211p.decider "xmldoc(\"config.xml\")"
config *.**.nic.phy80211p.analogueModels "xmldoc(\"config.xml\")"
config *.**.nic.phy80211p.usePropagationDelay true
config *.node[*].mobility.x 0
config *.node[*].mobility.y 0
config *.node[*].mobility.z 1.895
config seed-set 1
config **.seed 1
config *.node[*].prot.rng-0 2
config *.node[*].appl.rng-0 3
config *.node[*].scenario.rng-0 4
config **.traffic.rng-0 5
config *.manager.configFile "\"./sumocfg/freeway.sumo.cfg\""
config *.manager.launchConfig "xmldoc(\"./sumocfg/freeway.launchd.xml\")"
config **.numberOfCars 16
config **.numberOfCarsPerPlatoon 9
config **.numberOfLanes 1
config *.node[*].helper_type "\"PositionHelper\""
config *.node[*].scenario.caccC1 0.5
config *.node[*].scenario.caccXi 1
config *.node[*].scenario.caccOmegaN "0.2 Hz"
config *.node[*].scenario.caccSpacing "2 m"
config *.node[*].scenario.engineTau "0.5 s"
config *.node[*].scenario.ploegH 0.5s
config *.node[*].scenario.ploegKp 0.2
config *.node[*].scenario.ploegKd 0.7
config *.node[*].scenario.useRealisticEngine false
config *.node[*].scenario.useControllerAcceleration true
config *.node[*].scenario.nLanes 1
config **.numericController 1
config **.headway 0.1s
config *.node[*].scenario.accHeadway 0.1s
config *.node[*].scenario.leaderHeadway 1.2s
config *.node[*].scenario.leaderSpeed 110kmph
config *.node[*].appl_type "\"SimplePlatooningApp\""
config *.node[*].appl.*.scalar-recording true
config *.node[*].appl.*.vector-recording true
config *.node[0].appl.breakRanksSafetyDistance 15m
config *.node[*].appl.minSpeed 100kmph
config *.node[*].appl.maxSpeed 120kmph
config *.node[*].protocol_type "\"SimplePlatooningBeaconing\""
config *.node[*].prot.*.scalar-recording true
config *.node[*].prot.*.vector-recording true
config *.node[*].prot.beaconingInterval 0.1s
config *.node[*].prot.priority 4
config *.node[*].prot.packetSize 200
config **.traffic_type "\"PlatoonsTrafficManager\""
config **.traffic.platoonInsertTime "1 s"
config **.traffic.platoonInsertSpeed 110kmph
config **.traffic.nCars 16
config **.traffic.platoonSize 9
config **.traffic.nLanes 1
config **.traffic.platooningVType "\"vtypeauto\""
config **.traffic.controller "\"CACC\""
config **.traffic.platoonInsertDistance 2m
config **.traffic.platoonInsertHeadway 0s
config **.traffic.platoonLeaderHeadway 1.2s
config **.scalar-recording false
config **.vector-recording false

vector 0 Highway.node[0].appl distance ETV
vector 1 Highway.node[0].appl relativeSpeed ETV
vector 2 Highway.node[0].appl nodeId ETV
vector 3 Highway.node[0].appl acceleration ETV
vector 4 Highway.node[0].appl controllerAcceleration ETV
vector 5 Highway.node[0].appl speed ETV
vector 6 Highway.node[0].appl posx ETV
vector 7 Highway.node[0].appl posy ETV
vector 8 Highway.node[1].appl distance ETV
vector 9 Highway.node[1].appl relativeSpeed ETV
vector 10 Highway.node[1].appl nodeId ETV
vector 11 Highway.node[1].appl acceleration ETV
vector 12 Highway.node[1].appl controllerAcceleration ETV
vector 13 Highway.node[1].appl speed ETV
vector 14 Highway.node[1].appl posx ETV
vector 15 Highway.node[1].appl posy ETV
vector 16 Highway.node[2].appl distance ETV
vector 17 Highway.node[2].appl relativeSpeed ETV
vector 18 Highway.node[2].appl nodeId ETV
vector 19 Highway.node[2].appl acceleration ETV
vector 20 Highway.node[2].appl controllerAcceleration ETV
vector 21 Highway.node[2].appl speed ETV
vector 22 Highway.node[2].appl posx ETV
vector 23 Highway.node[2].appl posy ETV
vector 24 Highway.node[3].appl distance ETV
vector 25 Highway.node[3].appl relativeSpeed ETV
vector 26 Highway.node[3].appl nodeId ETV
vector 27 Highway.node[3].appl acceleration ETV
vector 28 Highway.node[3].appl controllerAcceleration ETV
vector 29 Highway.node[3].appl speed ETV
vector 30 Highway.node[3].appl posx ETV
vector 31 Highway.node[3].appl posy ETV
vector 32 Highway.node[4].appl distance ETV
vector 33 Highway.node[4].appl relativeSpeed ETV
vector 34 Highway.node[4].appl nodeId ETV
vector 35 Highway.node[4].appl acceleration ETV
vector 36 Highway.node[4].appl controllerAcceleration ETV
vector 37 Highway.node[4].appl speed ETV
vector 38 Highway.node[4].appl posx ETV
vector 39 Highway.node[4].appl posy ETV
vector 40 Highway.node[5].appl distance ETV
vector 41 Highway.node[5].appl relativeSpeed ETV
vector 42 Highway.node[5].appl nodeId ETV
vector 43 Highway.node[5].appl acceleration ETV
vector 44 Highway.node[5].appl controllerAcceleration ETV
vector 45 Highway.node[5].appl speed ETV
vector 46 Highway.node[5].appl posx ETV
vector 47 Highway.node[5].appl posy ETV
vector 48 Highway.node[6].appl distance ETV
vector 49 Highway.node[6].appl relativeSpeed ETV
vector 50 Highway.node[6].appl nodeId ETV
vector 51 Highway.node[6].appl acceleration ETV
vector 52 Highway.node[6].appl controllerAcceleration ETV
vector 53 Highway.node[6].appl speed ETV
vector 54 Highway.node[6].appl posx ETV
vector 55 Highway.node[6].appl posy ETV
vector 56 Highway.node[7].appl distance ETV
vector 57 Highway.node[7].appl relativeSpeed ETV
vector 58 Highway.node[7].appl nodeId ETV
vector 59 Highway.node[7].appl acceleration ETV
vector 60 Highway.node[7].appl controllerAcceleration ETV
vector 61 Highway.node[7].appl speed ETV
vector 62 Highway.node[7].appl posx ETV
vector 63 Highway.node[7].appl posy ETV
vector 64 Highway.node[8].appl distance ETV
vector 65 Highway.node[8].appl relativeSpeed ETV
vector 66 Highway.node[8].appl nodeId ETV
vector 67 Highway.node[8].appl acceleration ETV
vector 68 Highway.node[8].appl controllerAcceleration ETV
vector 69 Highway.node[8].appl speed ETV
vector 70 Highway.node[8].appl posx ETV
vector 71 Highway.node[8].appl posy ETV
vector 72 Highway.node[9].appl distance ETV
vector 73 Highway.node[9].appl relativeSpeed ETV
vector 74 Highway.node[9].appl nodeId ETV
vector 75 Highway.node[9].appl acceleration ETV
vector 76 Highway.node[9].appl controllerAcceleration ETV
vector 77 Highway.node[9].appl speed ETV
vector 78 Highway.node[9].appl posx ETV
vector 79 Highway.node[9].appl posy ETV
vector 80 Highway.node[10].appl distance ETV
vector 81 Highway.node[10].appl relativeSpeed ETV
vector 82 Highway.node[10].appl nodeId ETV
vector 83 Highway.node[10].appl acceleration ETV
vector 84 Highway.node[10].appl controllerAcceleration ETV
vector 85 Highway.node[10].appl speed ETV
vector 86 Highway.node[10].appl posx ETV
vector 87 Highway.node[10].appl posy ETV
vector 88 Highway.node[11].appl distance ETV
vector 89 Highway.node[11].appl relativeSpeed ETV
vector 90 Highway.node[11].appl nodeId ETV
vector 91 Highway.node[11].appl acceleration ETV
vector 92 Highway.node[11].appl controllerAcceleration ETV
vector 93 Highway.node[11].appl speed ETV
vector 94 Highway.node[11].appl posx ETV
vector 95 Highway.node[11].appl posy ETV
vector 96 Highway.node[12].appl distance ETV
vector 97 Highway.node[12].appl relativeSpeed ETV
vector 98 Highway.node[12].appl nodeId ETV
vector 99 Highway.node[12].appl acceleration ETV
vector 100 Highway.node[12].appl controllerAcceleration ETV
vector 101 Highway.node[12].appl speed ETV
vector 102 Highway.node[12].appl posx ETV
vector 103 Highway.node[12].appl posy ETV
vector 104 Highway.node[13].appl distance ETV
vector 105 Highway.node[13].appl relativeSpeed ETV
vector 106 Highway.node[13].appl nodeId ETV
vector 107 Highway.node[13].appl acceleration ETV
vector 108 Highway.node[13].appl controllerAcceleration ETV
vector 109 Highway.node[13].appl speed ETV
vector 110 Highway.node[13].appl posx ETV
vector 111 Highway.node[13].appl posy ETV
vector 112 Highway.node[14].appl distance ETV
vector 113 Highway.node[14].appl relativeSpeed ETV
vector 114 Highway.node[14].appl nodeId ETV
vector 115 Highway.node[14].appl acceleration ETV
vector 116 Highway.node[14].appl controllerAcceleration ETV
vector 117 Highway.node[14].appl speed ETV
vector 118 Highway.node[14].appl posx ETV
vector 119 Highway.node[14].appl posy ETV
vector 120 Highway.node[15].appl distance ETV
vector 121 Highway.node[15].appl relativeSpeed ETV
vector 122 Highway.node[15].appl nodeId ETV
vector 123 Highway.node[15].appl acceleration ETV
vector 124 Highway.node[15].appl controllerAcceleration ETV
vector 125 Highway.node[15].appl speed ETV
vector 126 Highway.node[15].appl posx ETV
vector 127 Highway.node[15].appl posy ETV
vector 128 Highway.node[8].prot frontDelay ETV
vector 129 Highway.node[8].prot frontDelayId ETV
vector 130 Highway.node[11].prot frontDelay ETV
vector 131 Highway.node[11].prot frontDelayId ETV
vector 132 Highway.node[9].prot frontDelay ETV
vector 133 Highway.node[9].prot frontDelayId ETV
vector 134 Highway.node[4].prot frontDelay ETV
vector 135 Highway.node[4].prot frontDelayId ETV
vector 136 Highway.node[6].prot frontDelay ETV
vector 137 Highway.node[6].prot frontDelayId ETV
vector 138 Highway.node[2].prot leaderDelay ETV
vector 139 Highway.node[2].prot leaderDelayId ETV
vector 140 Highway.node[2].prot frontDelay ETV
vector 141 Highway.node[2].prot frontDelayId ETV
vector 142 Highway.node[3].prot leaderDelay ETV
vector 143 Highway.node[3].prot leaderDelayId ETV
vector 144 Highway.node[4].prot leaderDelay ETV
vector 145 Highway.node[4].prot leaderDelayId ETV
vector 146 Highway.node[5].prot leaderDelay ETV
vector 147 Highway.node[5].prot leaderDelayId ETV
vector 148 Highway.node[6].prot leaderDelay ETV
vector 149 Highway.node[6].prot leaderDelayId ETV
vector 150 Highway.node[7].prot leaderDelay ETV
vector 151 Highway.node[7].prot leaderDelayId ETV
vector 152 Highway.node[10].prot frontDelay ETV
vector 153 Highway.node[10].prot frontDelayId ETV
vector 154 Highway.node[13].prot frontDelay ETV
vector 155 Highway.node[13].prot frontDelayId ETV
vector 156 Highway.node[7].prot frontDelay ETV
vector 157 Highway.node[7].prot frontDelayId ETV
vector 158 Highway.node[12].prot frontDelay ETV
vector 159 Highway.node[12].prot frontDelayId ETV
vector 160 Highway.node[14].prot frontDelay ETV
vector 161 Highway.node[14].prot frontDelayId ETV
vector 162 Highway.node[5].prot frontDelay ETV
vector 163 Highway.node[5].prot frontDelayId ETV
vector 164 Highway.node[1].prot leaderDelay ETV
vector 165 Highway.node[1].prot leaderDelayId ETV
vector 166 Highway.node[1].prot frontDelay ETV
vector 167 Highway.node[1].prot frontDelayId ETV
vector 168 Highway.node[8].prot leaderDelay ETV
vector 169 Highway.node[8].prot leaderDelayId ETV
vector 170 Highway.node[9].prot leaderDelay ETV
vector 171 Highway.node[9].prot leaderDelayId ETV
vector 172 Highway.node[10].prot leaderDelay ETV
vector 173 Highway.node[10].prot leaderDelayId ETV
vector 174 Highway.node[11].prot leaderDelay ETV
vector 175 Highway.node[11].prot leaderDelayId ETV
vector 176 Highway.node[12].prot leaderDelay ETV
vector 177 Highway.node[12].prot leaderDelayId ETV
vector 178 Highway.node[13].prot leaderDelay ETV
vector 179 Highway.node[13].prot leaderDelayId ETV
vector 180 Highway.node[14].prot leaderDelay ETV
vector 181 Highway.node[14].prot leaderDelayId ETV
vector 182 Highway.node[3].prot frontDelay ETV
vector 183 Highway.node[3].prot frontDelayId ETV
vector 184 Highway.node[0].prot nodeId ETV
vector 185 Highway.node[0].prot busyTime ETV
vector 186 Highway.node[0].prot collisions ETV
vector 187 Highway.node[1].prot nodeId ETV
vector 188 Highway.node[1].prot busyTime ETV
vector 189 Highway.node[1].prot collisions ETV
vector 190 Highway.node[2].prot nodeId ETV
vector 191 Highway.node[2].prot busyTime ETV
vector 192 Highway.node[2].prot collisions ETV
vector 193 Highway.node[3].prot nodeId ETV
vector 194 Highway.node[3].prot busyTime ETV
vector 195 Highway.node[3].prot collisions ETV
vector 196 Highway.node[4].prot nodeId ETV
vector 197 Highway.node[4].prot busyTime ETV
vector 198 Highway.node[4].prot collisions ETV
vector 199 Highway.node[5].prot nodeId ETV
vector 200 Highway.node[5].prot busyTime ETV
vector 201 Highway.node[5].prot collisions ETV
vector 202 Highway.node[6].prot nodeId ETV
vector 203 Highway.node[6].prot busyTime ETV
vector 204 Highway.node[6].prot collisions ETV
vector 205 Highway.node[7].prot nodeId ETV
vector 206 Highway.node[7].prot busyTime ETV
vector 207 Highway.node[7].prot collisions ETV
vector 208 Highway.node[8].prot nodeId ETV
vector 209 Highway.node[8].prot busyTime ETV
vector 210 Highway.node[8].prot collisions ETV
vector 211 Highway.node[9].prot nodeId ETV
vector 212 Highway.node[9].prot busyTime ETV
vector 213 Highway.node[9].prot collisions ETV
vector 214 Highway.node[10].prot nodeId ETV
vector 215 Highway.node[10].prot busyTime ETV
vector 216 Highway.node[10].prot collisions ETV
vector 217 Highway.node[11].prot nodeId ETV
vector 218 Highway.node[11].prot busyTime ETV
vector 219 Highway.node[11].prot collisions ETV
vector 220 Highway.node[12].prot nodeId ETV
vector 221 Highway.node[12].prot busyTime ETV
vector 222 Highway.node[12].prot collisions ETV
vector 223 Highway.node[13].prot nodeId ETV
vector 224 Highway.node[13].prot busyTime ETV
vector 225 Highway.node[13].prot collisions ETV
vector 226 Highway.node[14].prot nodeId ETV
vector 227 Highway.node[14].prot busyTime ETV
vector 228 Highway.node[14].prot collisions ETV
vector 229 Highway.node[15].prot nodeId ETV
vector 230 Highway.node[15].prot busyTime ETV
vector 231 Highway.node[15].prot collisions ETV
0	16698 17810 113 1096605 1.11 99.91 989 -1 9269.83 202969.26 1890455428.0358
1	34508 16924 113 1096605 1.11 99.91 989 0 0.000547412 0.0090781108 4.1318397631674e-06
2	51432 16711 113 1096605 1.11 99.91 989 0 0 0 0
3	68143 19299 113 1096605 1.11 99.91 989 -0.00283113 0.000125957 -0.043966303784312 9.6812896349407e-05
4	87442 26679 113 1096605 1.11 99.91 989 -0.00437036 0.00019576 -0.042459310034081 0.00013890441444735
5	114121 22641 113 1096605 1.11 99.91 989 30.5554 30.56 30219.5304 923377.16656332
6	136762 22539 113 1096605 1.11 99.91 989 58.3604 3077.26 1550565.0859 3183635753.7183
7	159301 21656 113 1096605 1.11 99.91 989 242.45 242.45 239783.05 58135400.472499
8	180957 21601 114 1096606 1.11 99.91 989 -1 14.9996 9300.04587 131423.22123594
9	202558 23451 114 1096606 1.11 99.91 989 -0.000537994 1.03514 129.99570513019 89.00432250554
10	226009 17700 114 1096606 1.11 99.91 989 1 1 989 989
11	243709 26761 114 1096606 1.11 99.91 989 -0.393651 1.34131 24.414175861665 28.985601125625
12	270470 26735 114 1096606 1.11 99.91 989 -0.518248 1.5 24.315538373348 37.018320662647
13	297205 23134 114 1096606 1.11 99.91 989 29.5205 33.0928 30528.9326 943429.77767926
14	320339 23523 114 1096606 1.11 99.91 989 52.3604 3102.08 1538188.3474 3149755547.7711
15	343862 22645 114 1096606 1.11 99.91 989 242.45 245.75 240416.65 58444723.9925
16	366507 22467 115 1096607 1.11 99.91 989 -1 38.2984 9782.06782 166503.02020092
17	388974 23585 115 1096607 1.11 99.91 989 -0.00041042 3 318.9831600432 656.00099018768
18	412559 18689 115 1096607 1.11 99.91 989 10 10 9890 98900
19	431248 26886 115 1096607 1.11 99.91 989 -0.393652 0.0836455 -5.5701476885199 5.1038156388627
20	458134 26877 115 1096607 1.11 99.91 989 -0.548387 0.0843329 -4.9744544461888 6.2620920152123
21	485011 22562 115 1096607 1.11 99.91 989 29.5205 30.56 29939.0867 906410.74930443
22	507573 23506 115 1096607 1.11 99.91 989 9362.19 12353.1 10739628.65 117364325286.32
23	531079 22645 115 1096607 1.11 99.91 989 242.45 245.75 240707.05 58586497.2725
24	553724 23507 116 1096608 1.11 99.91 989 1.99957 38.3441 18184.6305 487013.24074481
25	577231 25518 116 1096608 1.11 99.91 989 -0.000156291 0.820931 173.47345037988 82.278406224848
26	602749 18689 116 1096608 1.11 99.91 989 11 11 10879 119669
27	621438 26156 116 1096608 1.11 99.91 989 -0.611843 0.129517 -0.334394224267 10.503655463508
28	647594 26209 116 1096608 1.11 99.91 989 -0.775722 0.130383 0.22118881465001 12.102971626484
29	673803 23522 116 1096608 1.11 99.91 989 28.7356 30.56 29916.0739 905158.73892571
30	697325 23462 116 1096608 1.11 99.91 989 9356.19 12344.7 10724838.28 117040109993.75
31	720787 22645 116 1096608 1.11 99.91 989 242.45 242.45 239783.05 58135400.472499
32	743432 22129 117 1096609 1.11 99.91 989 -1 14.986 7244.76126 98479.213187113
33	765561 23354 117 1096609 1.11 99.91 989 -4.66971e-05 0.689078 129.86060987849 61.162272821929
34	788915 18689 117 1096609 1.11 99.91 989 12 12 11868 142416
35	807604 26437 117 1096609 1.11 99.91 989 -0.730444 1.34001 24.436251594632 40.774632184275
36	834041 26428 117 1096609 1.11 99.91 989 -0.905093 1.5 24.680892075198 50.64223840451
37	860469 22710 117 1096609 1.11 99.91 989 28.1254 33.093 30483.5709 941730.90288531
38	883179 23472 117 1096609 1.11 99.91 989 9350.19 12395.4 10718736.7 116924926080.68
39	906651 22645 117 1096609 1.11 99.91 989 242.45 249.05 241423.15 58940823.552501
40	929296 23503 118 1096610 1.11 99.91 989 1.99867 52.951 19498.02695 637293.48040052
41	952799 25499 118 1096610 1.11 99.91 989 -1.04484 0.607027 -8.617907396707 150.33806241315
42	978298 18689 118 1096610 1.11 99.91 989 13 13 12857 167141
43	996987 26046 118 1096610 1.11 99.91 989 -0.799563 0.293145 -4.45264849931 21.456178864176
44	1023033 26055 118 1096610 1.11 99.91 989 -0.972329 0.455408 -3.935414274056 24.399832432358
45	1049088 23531 118 1096610 1.11 99.91 989 27.6345 31.0203 29687.9003 891945.36317465
46	1072619 23460 118 1096610 1.11 99.91 989 9344.19 12309.9 10695126.7 116385859134.65
47	1096079 22645 118 1096610 1.11 99.91 989 242.45 245.75 240707.05 58586497.2725
48	1118724 22925 119 1096611 1.11 99.91 989 -1 74.6437 16243.73807 654976.46680133
49	1141649 23647 119 1096611 1.11 99.91 989 -3.26528e-05 2.00596 453.39762961677 696.58316198992
50	1165296 18689 119 1096611 1.11 99.91 989 14 14 13846 193844
51	1183985 26284 119 1096611 1.11 99.91 989 -0.834233 0.297373 4.4323581766896 24.481439530105
52	1210269 26298 119 1096611 1.11 99.91 989 -0.99918 0.461992 5.0092170736172 27.460877595898
53	1236567 22574 119 1096611 1.11 99.91 989 27.2414 31.0206 29690.1311 892546.75554205
54	1259141 23459 119 1096611 1.11 99.91 989 9338.19 12304.1 10681223 116080954598.85
55	1282600 22645 119 1096611 1.11 99.91 989 242.45 252.35 241812.55 59134696.572501
56	1305245 23500 120 1096612 1.11 99.91 989 1.99992 82.4905 27880.68369 1706452.5136787
57	1328745 25091 120 1096612 1.11 99.91 989 -0.000284188 0.523555 236.16729085268 90.554667213477
58	1353836 18689 120 1096612 1.11 99.91 989 15 15 14835 222525
59	1372525 26279 120 1096612 1.11 99.91 989 -0.852577 0.172271 -5.5703168801028 27.355042066467
60	1398804 26271 120 1096612 1.11 99.91 989 -1.01532 0.172632 -4.9824403115216 30.301768050062
61	1425075 22579 120 1096612 1.11 99.91 989 26.9216 30.56 29290.9074 868656.37509278
62	1447654 23510 120 1096612 1.11 99.91 989 9332.19 12258.3 10662905.8 115669238953.04
63	1471164 22645 120 1096612 1.11 99.91 989 242.45 242.45 239783.05 58135400.472499
64	1493809 23495 121 1096613 1.11 99.91 989 1.99968 44.1271 16626.10417 415903.93469785
65	1517304 25552 121 1096613 1.11 99.91 989 -6.49554e-05 0.81794 231.55322348663 127.55917739606
66	1542856 17700 121 1096613 1.11 99.91 989 2 2 1978 3956
67	1560556 26619 121 1096613 1.11 99.91 989 -0.611096 0.129305 -5.5701449681929 11.185322524705
68	1587175 26624 121 1096613 1.11 99.91 989 -0.777859 0.130147 -4.9744325629509 13.194604483619
69	1613799 22994 121 1096613 1.11 99.91 989 28.7371 30.56 29857.9818 901653.96156344
70	1636793 23535 121 1096613 1.11 99.91 989 46.3604 3029.13 1517302.8788 3065956103.1266
71	1660328 22645 121 1096613 1.11 99.91 989 242.45 242.45 239783.05 58135400.472499
72	1682973 23510 122 1096614 1.11 99.91 989 1.99965 53.6461 17289.42438 495745.1223484
73	1706483 25052 122 1096614 1.11 99.91 989 -0.000133123 1.65987 326.97690738676 273.15724187321
74	1731535 17700 122 1096614 1.11 99.91 989 3 3 2967 8901
75	1749235 26406 122 1096614 1.11 99.91 989 -0.73122 0.889246 14.428721880837 25.9129058042
76	1775641 26403 122 1096614 1.11 99.91 989 -0.908702 1.09697 14.971203046793 30.98494139348
77	1802044 23177 122 1096614 1.11 99.91 989 28.1252 32.0616 30071.9698 915343.81186282
78	1825221 23521 122 1096614 1.11 99.91 989 40.3604 3044.43 1504584.3958 3028310285.7596
79	1848742 22645 122 1096614 1.11 99.91 989 242.45 245.75 240416.65 58444723.9925
80	1871387 23487 123 1096615 1.11 99.91 989 1.99965 37.2328 15385.62823 357401.31956874
81	1894874 25478 123 1096615 1.11 99.91 989 -0.0414269 0.606652 162.40775754167 61.688393758454
82	1920352 17700 123 1096615 1.11 99.91 989 4 4 3956 15824
83	1938052 26010 123 1096615 1.11 99.91 989 -0.797373 0.167037 -6.330033343855 22.649093759929
84	1964062 26012 123 1096615 1.11 99.91 989 -0.974411 0.167609 -5.75372303284 25.378899006537
85	1990074 23528 123 1096615 1.11 99.91 989 27.6369 30.56 29565.6177 884544.20699001
86	2013602 23495 123 1096615 1.11 99.91 989 34.3604 2987.9 1485929.2796 2956104438.5561
87	2037097 22645 123 1096615 1.11 99.91 989 242.45 242.45 239783.05 58135400.472499
88	2059742 23488 124 1096616 1.11 99.91 989 1.99982 103.929 20878.59264 1033010.777736
89	2083230 24878 124 1096616 1.11 99.91 989 -3.44258e-05 4.12261 831.38585700568 2791.3954364032
90	2108108 17700 124 1096616 1.11 99.91 989 5 5 4945 24725
91	2125808 26146 124 1096616 1.11 99.91 989 -1.35943 0.172018 -25.562926420013 50.443274343539
92	2151954 26125 124 1096616 1.11 99.91 989 -1.5 0.172582 -24.638317066122 59.647495468267
93	2178079 23130 124 1096616 1.11 99.91 989 27.2423 30.56 29110.6783 858235.51869979
94	2201209 23417 124 1096616 1.11 99.91 989 28.3604 2936.5 1468043.5096 2887951644.088
95	2224626 22645 124 1096616 1.11 99.91 989 242.45 245.75 240416.65 58444723.9925
96	2247271 23490 125 1096617 1.11 99.91 989 1.99363 66.3709 17245.04221 575342.88692309
97	2270761 25118 125 1096617 1.11 99.91 989 -0.007853 1.9238 454.85958037495 623.62287607161
98	2295879 17700 125 1096617 1.11 99.91 989 6 6 5934 35604
99	2313579 26067 125 1096617 1.11 99.91 989 -1.35838 0.172383 -25.562892018814 53.045109705381
100	2339646 27006 125 1096617 1.11 99.91 989 -1.5 0.172705 -24.637881672129 62.406623172468
101	2366652 24137 125 1096617 1.11 99.91 989 26.9181 30.56 28980.9435 850785.52068589
102	2390789 24500 125 1096617 1.11 99.91 989 22.3604 2917.53 1453344.1707 2836969155.9554
103	2415289 23634 125 1096617 1.11 99.91 989 242.45 242.45 239783.05 58135400.472499
104	2438923 23698 126 1096618 1.11 99.91 989 -1 33.905 8513.04499 129987.96218573
105	2462621 25183 126 1096618 1.11 99.91 989 -0.956262 0.460933 110.41329448158 55.449436261303
106	2487804 18689 126 1096618 1.11 99.91 989 7 7 6923 48461
107	2506493 26882 126 1096618 1.11 99.91 989 -1.07545 1.42663 4.3979268453989 84.782092036619
108	2533375 26804 126 1096618 1.11 99.91 989 -1.16877 1.5 4.13349788791 102.22708136621
109	2560179 24306 126 1096618 1.11 99.91 989 26.6529 31.099 29293.9097 869431.69187571
110	2584485 24503 126 1096618 1.11 99.91 989 16.3604 2942.67 1442293.2418 2805589551.6709
111	2608988 23634 126 1096618 1.11 99.91 989 242.45 249.05 240938.05 58702712.7125
112	2632622 24358 127 1096619 1.11 99.91 989 1.9998 50.5876 15132.94666 417749.92198811
113	2656980 25879 127 1096619 1.11 99.91 989 -0.000545428 1.04211 296.97912223967 204.07787287213
114	2682859 18689 127 1096619 1.11 99.91 989 8 8 7912 63296
115	2701548 26945 127 1096619 1.11 99.91 989 -1.46071 0.165252 -35.5627779755 70.946096240415
116	2728493 26855 127 1096619 1.11 99.91 989 -1.5 0.165427 -34.636486931233 80.730984511999
117	2755348 24147 127 1096619 1.11 99.91 989 26.436 30.56 28554.5689 826783.49987065
118	2779495 24518 127 1096619 1.11 99.91 989 10.3604 2862.94 1423519.3358 2730941022.8005
119	2804013 23634 127 1096619 1.11 99.91 989 242.45 242.45 239783.05 58135400.472499
120	2827647 19678 128 1096620 1.11 99.91 989 -1 -1 -989 989
121	2847325 18689 128 1096620 1.11 99.91 989 0 0 0 0
122	2866014 18689 128 1096620 1.11 99.91 989 9 9 8901 80109
123	2884703 21277 128 1096620 1.11 99.91 989 -0.00283113 0.000125957 -0.043966303784312 9.6812896349407e-05
124	2905980 28657 128 1096620 1.11 99.91 989 -0.00437036 0.00019576 -0.042459310034081 0.00013890441444735
125	2934637 24619 128 1096620 1.11 99.91 989 30.5554 30.56 30219.5304 923377.16656332
126	2959256 24439 128 1096620 1.11 99.91 989 9368.19 12387.1 10757989.3 117774214135.85
127	2983695 23634 128 1096620 1.11 99.91 989 242.45 242.45 239783.05 58135400.472499
128	3007329 41143 1267 1096667 1.212415620431 99.912424039981 988 0.099990901743 0.100010600393 98.800003019967 9.8800006414807
129	3048472 28440 1267 1096667 1.212415620431 99.912424039981 988 2 2 1976 3952
130	3076912 41146 1338 1096738 1.212838680473 99.912834349291 988 0.099904099113 0.100100245815 98.799938269235 9.8799895605195
131	3118058 28435 1338 1096738 1.212838680473 99.912834349291 988 5 5 4940 24700
132	3146493 41160 1414 1096802 1.234360720501 99.934356367372 988 0.09999138551 0.10000970748 98.799990247288 9.8799980864373
133	3187653 28450 1414 1096802 1.234360720501 99.934356367372 988 3 3 2964 8892
134	3216103 41167 1484 1096896 1.235021380264 99.935018197669 988 0.099989247982 0.100007430583 98.799990177655 9.8799980769421
135	3257270 29436 1484 1096896 1.235021380264 99.935018197669 988 12 12 11856 142272
136	3286706 41150 1543 1096931 1.248691420292 99.948688167043 988 0.099989388109 0.100007429636 98.799990107001 9.8799980628054
137	3327856 29431 1543 1096931 1.248691420292 99.948688167043 988 14 14 13832 193648
138	3357287 41176 1618 1097018 1.251116500347 99.951113516527 988 0.099989257289 0.100007434836 98.80000337643 9.8800007165892
139	3398463 29428 1618 1097018 1.251116500347 99.951113516527 988 10 10 9880 98800
140	3427891 41176 1618 1097018 1.251116500347 99.951113516527 988 0.099989257289 0.100007434836 98.80000337643 9.8800007165892
141	3469067 29428 1618 1097018 1.251116500347 99.951113516527 988 10 10 9880 98800
142	3498495 41179 1624 1097024 1.251116520361 99.951113543685 988 0.099989257291 0.100007434663 98.800003383574 9.8800007180179
143	3539674 29441 1624 1097024 1.251116520361 99.951113543685 988 11 11 10868 119548
144	3569115 41181 1630 1097012 1.251116540374 99.951113432551 988 0.099989257295 0.100007435409 98.800003252426 9.8800006917884
145	3610296 29435 1630 1097012 1.251116540374 99.951113432551 988 12 12 11856 142272
146	3639731 41130 1636 1097030 1.251116560388 99.951113660059 988 0.099989257303 0.1000074348 98.800003459921 9.8800007332873
147	3680861 29419 1636 1097030 1.251116560388 99.951113660059 988 13 13 12844 166972
148	3710280 41174 1642 1097036 1.251116580402 99.951113679967 988 0.099989257316 0.100007434505 98.800003459815 9.8800007332661
149	3751454 29432 1642 1097036 1.251116580402 99.951113679967 988 14 14 13832 193648
150	3780886 41160 1648 1097042 1.251116600416 99.951113832274 988 0.099989257334 0.100007434838 98.800003592108 9.8800007597248
151	3822046 29418 1648 1097042 1.251116600416 99.951113832274 988 15 15 14820 222300
152	3851464 41175 1738 1097138 1.253133940653 99.953130665183 988 0.099991385635 0.100009710187 98.800004324947 9.8800009019869
153	3892639 28451 1738 1097138 1.253133940653 99.953130665183 988 4 4 3952 15808
154	3921090 41146 1812 1097206 1.253934000695 99.953930987263 988 0.099991782711 0.100009705231 98.799991586985 9.8799983542485
155	3962236 28436 1812 1097206 1.253934000695 99.953930987263 988 7 7 6916 48412
156	3990672 41181 1883 1097283 1.263876600416 99.963873834755 988 0.099989227527 0.100009400258 98.800003594589 9.8800007602935
157	4031853 29436 1883 1097283 1.263876600416 99.963873834755 988 15 15 14820 222300
158	4061289 41145 1946 1097340 1.271907020709 99.971917028536 988 0.099990902665 0.100010600393 98.800004608244 9.8800009589112
159	4102434 28443 1946 1097340 1.271907020709 99.971917028536 988 6 6 5928 35568
160	4130877 41178 2021 1097427 1.287163060737 99.987160256202 988 0.099994600389 0.100009719612 98.800004795882 9.8800009959578
161	4172055 28453 2021 1097427 1.287163060737 99.987160256202 988 8 8 7904 63232
162	4200508 41173 2150 1097556 1.297365680472 99.997363578966 988 0.099989248195 0.100007432189 98.799991258744 9.8799982930354
163	4241681 29434 2150 1097556 1.297365680472 99.997363578966 988 13 13 12844 166972
164	4271115 41150 2206 1097600 1.297791200834 99.997788521851 988 0.099991385734 0.100009712353 98.800004921434 9.8800010212873
165	4312265 28447 2206 1097600 1.297791200834 99.997788521851 988 1 1 988 988
166	4340712 41150 2206 1097600 1.297791200834 99.997788521851 988 0.099991385734 0.100009712353 98.800004921434 9.8800010212873
167	4381862 28447 2206 1097600 1.297791200834 99.997788521851 988 1 1 988 988
168	4410309 41137 2212 1097612 1.297791220848 99.997788598313 988 0.099991385735 0.100009711729 98.800004977882 9.8800010325768
169	4451446 28423 2212 1097612 1.297791220848 99.997788598313 988 2 2 1976 3952
170	4479869 41172 2218 1097606 1.297791240861 99.997788547234 988 0.099991385738 0.100009711065 98.800004906789 9.8800010183583
171	4521041 28463 2218 1097606 1.297791240861 99.997788547234 988 3 3 2964 8892
172	4549504 41171 2224 1097618 1.297791260875 99.997788735873 988 0.099991385742 0.100009711755 98.800005075415 9.8800010520835
173	4590675 28453 2224 1097618 1.297791260875 99.997788735873 988 4 4 3952 15808
174	4619128 41142 2230 1097630 1.297791280889 99.997788908023 988 0.099991385749 0.100009712397 98.800005227551 9.8800010825107
175	4660270 28413 2230 1097630 1.297791280889 99.997788908023 988 5 5 4940 24700
176	4688683 41167 2236 1097636 1.297791300903 99.997788971183 988 0.09999138576 0.100009712396 98.800005270697 9.8800010911399
177	4729850 28453 2236 1097636 1.297791300903 99.997788971183 988 6 6 5928 35568
178	4758303 41168 2242 1097624 1.297791320917 99.997788886943 988 0.099991385776 0.100009711396 98.800005166443 9.8800010702891
179	4799471 28442 2242 1097624 1.297791320917 99.997788886943 988 7 7 6916 48412
180	4827913 41171 2248 1097642 1.297791340931 99.997789153568 988 0.099991385798 0.10000971273 98.800005413054 9.8800011196112
181	4869084 28455 2248 1097642 1.297791340931 99.997789153568 988 8 8 7904 63232
182	4897539 41148 2277 1096573 1.3072007205 99.907204028194 987 0.099993360234 0.100009400258 98.699996667944 9.8699993747957
183	4938687 29400 2277 1096573 1.3072007205 99.907204028194 987 11 11 10857 119427
184	4968087 1576 9936 1097644 2 100 99 0 0 0 0
185	4969663 2184 9936 1097644 2 100 99 0.025281 0.0293985599 2.7804665599 0.078100599798194
186	4971847 1576 9936 1097644 2 100 99 0 0 0 0
187	4973423 1576 9937 1097645 2 100 99 1 1 99 99
188	4974999 2184 9937 1097645 2 100 99 0.025281 0.02913 2.78000612609 0.078074052974318
189	4977183 1576 9937 1097645 2 100 99 0 0 0 0
190	4978759 1675 9938 1097646 2 100 99 10 10 990 9900
191	4980434 2183 9938 1097646 2 100 99 0.019352 0.022666 2.16210912609 0.047226320711715
192	4982617 1576 9938 1097646 2 100 99 0 0 0 0
193	4984193 1675 9939 1097647 2 100 99 11 11 1089 11979
194	4985868 2184 9939 1097647 2 100 99 0.019353 0.022666 2.162110252598 0.04722636498185
195	4988052 1576 9939 1097647 2 100 99 0 0 0 0
196	4989628 1675 9940 1097648 2 100 99 12 12 1188 14256
197	4991303 2184 9940 1097648 2 100 99 0.019353 0.022666 2.162110379186 0.047226370550536
198	4993487 1576 9940 1097648 2 100 99 0 0 0 0
199	4995063 1675 9941 1097649 2 100 99 13 13 1287 16731
200	4996738 2184 9941 1097649 2 100 99 0.019353 0.022666 2.162110505824 0.047226376121454
201	4998922 1576 9941 1097649 2 100 99 0 0 0 0
202	5000498 1675 9942 1097650 2 100 99 14 14 1386 19404
203	5002173 2184 9942 1097650 2 100 99 0.019353 0.022666 2.162110632476 0.047226381693019
204	5004357 1576 9942 1097650 2 100 99 0 0 0 0
205	5005933 1675 9943 1097651 2 100 99 15 15 1485 22275
206	5007608 2184 9943 1097651 2 100 99 0.019353 0.022699759142 2.162110759142 0.047226434798105
207	5009792 1576 9943 1097651 2 100 99 0 0 0 0
208	5011368 1576 9944 1097652 2 100 99 2 2 198 396
209	5012944 2185 9944 1097652 2 100 99 0.025281 0.02913 2.780006252586 0.078074060117595
210	5015129 1576 9944 1097652 2 100 99 0 0 0 0
211	5016705 1576 9945 1097653 2 100 99 3 3 297 891
212	5018281 2185 9945 1097653 2 100 99 0.025281 0.02913 2.780006379188 0.07807406726689
213	5020466 1576 9945 1097653 2 100 99 0 0 0 0
214	5022042 1576 9946 1097654 2 100 99 4 4 396 1584
215	5023618 2185 9946 1097654 2 100 99 0.025281 0.02913 2.780006505826 0.07807407441825
216	5025803 1576 9946 1097654 2 100 99 0 0 0 0
217	5027379 1576 9947 1097655 2 100 99 5 5 495 2475
218	5028955 2185 9947 1097655 2 100 99 0.025281 0.02913 2.780006632478 0.078074081570433
219	5031140 1576 9947 1097655 2 100 99 0 0 0 0
220	5032716 1576 9948 1097656 2 100 99 6 6 594 3564
221	5034292 2185 9948 1097656 2 100 99 0.025281 0.02913 2.780006759144 0.078074088723438
222	5036477 1576 9948 1097656 2 100 99 0 0 0 0
223	5038053 1576 9949 1097657 2 100 99 7 7 693 4851
224	5039629 2185 9949 1097657 2 100 99 0.025281 0.02913 2.780006885826 0.078074095877379
225	5041814 1576 9949 1097657 2 100 99 0 0 0 0
226	5043390 1576 9950 1097658 2 100 99 8 8 792 6336
227	5044966 2186 9950 1097658 2 100 99 0.025281 0.029164012502 2.780007012502 0.078074166158217
228	5047152 1576 9950 1097658 2 100 99 0 0 0 0
229	5048728 1576 9951 1097659 2 100 99 9 9 891 8019
230	5050304 2184 9951 1097659 2 100 99 0.019353 0.022866659194 2.162438659194 0.047241116592695
231	5052488 1576 9951 1097659 2 100 99 0 0 0 0

