version 3
run BreakRanksNoGui-803-20240711-14:19:32-290651
attr configname BreakRanksNoGui
attr datetime 20240711-14:19:32
attr datetimef 20240711-141932
attr experiment BreakRanksNoGui
attr inifile omnetpp.ini
attr iterationvars "$nCars=9, $platoonSize=9, $nLanes=1, $ploegH=0.5, $controller=1, $headway=0.1, $leaderHeadway=1.2, $leaderSpeed=130, $breakRanksSafetyDistance=2, $minSpeed=120, $maxSpeed=140, $beaconInterval=0.1, $priority=4, $packetSize=200, $sController=\"CACC\", $0=2, $1=0"
attr iterationvarsd nCars=9/platoonSize=9/nLanes=1/ploegH=0.5/controller=1/headway=0.1/leaderHeadway=1.2/leaderSpeed=130/breakRanksSafetyDistance=2/minSpeed=120/maxSpeed=140/beaconInterval=0.1/priority=4/packetSize=200/sController=CACC/2/0
attr iterationvarsf nCars=9,platoonSize=9,nLanes=1,ploegH=0.5,controller=1,headway=0.1,leaderHeadway=1.2,leaderSpeed=130,breakRanksSafetyDistance=2,minSpeed=120,maxSpeed=140,beaconInterval=0.1,priority=4,packetSize=200,sController=CACC,2,0-
attr measurement "$nCars=9, $platoonSize=9, $nLanes=1, $ploegH=0.5, $controller=1, $headway=0.1, $leaderHeadway=1.2, $leaderSpeed=130, $breakRanksSafetyDistance=2, $minSpeed=120, $maxSpeed=140, $beaconInterval=0.1, $priority=4, $packetSize=200, $sController=\"CACC\", $0=2, $1=0"
attr network Highway
attr processid 290651
attr repetition 3
attr replication #3
attr resultdir results
attr runnumber 803
attr seedset 3
itervar beaconInterval 0.1
itervar breakRanksSafetyDistance 2
itervar controller 1
itervar headway 0.1
itervar leaderHeadway 1.2
itervar leaderSpeed 130
itervar maxSpeed 140
itervar minSpeed 120
itervar nCars 9
itervar nLanes 1
itervar packetSize 200
itervar platoonSize 9
itervar ploegH 0.5
itervar priority 4
itervar sController "\"CACC\""
config image-path ../../../veins/images
config repeat 10
config extends BreakRanks
config *.manager.command "\"sumo\""
config *.manager.ignoreGuiCommands true
config output-vector-file "results/BreakRanks_1_0.1_130_2_9 /result_3.vec"
config output-scalar-file "results/BreakRanks_1_0.1_130_2_9 /result_3.sca"
config extends Platooning
config *.node[*].scenario_type "\"BreakRanksScenario\""
config *.manager.command "\"sumo-gui\""
config *.node[*].scenario_type "\"SimpleScenario\""
config cmdenv-express-mode true
config cmdenv-autoflush true
config cmdenv-status-frequency 15s
config num-rngs 6
config network Highway
config debug-on-errors true
config print-undisposed true
config *.playgroundSizeX 65000m
config *.playgroundSizeY 25000m
config *.playgroundSizeZ 50m
config sim-time-limit "100 s"
config *.annotations.draw false
config *.obstacles.debug false
config *.world.useTorus false
config *.world.use2D false
config *.manager.updateInterval 0.01s
config *.manager.host "\"localhost\""
config *.manager.moduleType "\"org.car2x.plexe.PlatoonCar\""
config *.manager.moduleName "\"node\""
config *.manager.moduleDisplayString "\"\""
config *.manager.autoShutdown true
config *.manager.margin 25
config *.connectionManager.sendDirect true
config *.connectionManager.maxInterfDist 2600m
config *.connectionManager.drawMaxIntfDist false
config *.**.nic.mac1609_4.useServiceChannel false
config *.**.nic.mac1609_4.txPower 100mW
config *.**.nic.mac1609_4.bitrate 6Mbps
config *.**.nic.mac1609_4.useAcks true
config *.**.nic.mac1609_4.ackErrorRate 0.0
config *.**.nic.mac1609_4.frameErrorRate 0.0
config *.**.nic.phy80211p.minPowerLevel -94dBm
config *.**.nic.phy80211p.maxTXPower 100mW
config *.**.nic.phy80211p.useNoiseFloor true
config *.**.nic.phy80211p.noiseFloor -95dBm
config *.**.nic.phy80211p.decider "xmldoc(\"config.xml\")"
config *.**.nic.phy80211p.analogueModels "xmldoc(\"config.xml\")"
config *.**.nic.phy80211p.usePropagationDelay true
config *.node[*].mobility.x 0
config *.node[*].mobility.y 0
config *.node[*].mobility.z 1.895
config seed-set 3
config **.seed 3
config *.node[*].prot.rng-0 2
config *.node[*].appl.rng-0 3
config *.node[*].scenario.rng-0 4
config **.traffic.rng-0 5
config *.manager.configFile "\"./sumocfg/freeway.sumo.cfg\""
config *.manager.launchConfig "xmldoc(\"./sumocfg/freeway.launchd.xml\")"
config **.numberOfCars 9
config **.numberOfCarsPerPlatoon 9
config **.numberOfLanes 1
config *.node[*].helper_type "\"PositionHelper\""
config *.node[*].scenario.caccC1 0.5
config *.node[*].scenario.caccXi 1
config *.node[*].scenario.caccOmegaN "0.2 Hz"
config *.node[*].scenario.caccSpacing "2 m"
config *.node[*].scenario.engineTau "0.5 s"
config *.node[*].scenario.ploegH 0.5s
config *.node[*].scenario.ploegKp 0.2
config *.node[*].scenario.ploegKd 0.7
config *.node[*].scenario.useRealisticEngine false
config *.node[*].scenario.useControllerAcceleration true
config *.node[*].scenario.nLanes 1
config **.numericController 1
config **.headway 0.1s
config *.node[*].scenario.accHeadway 0.1s
config *.node[*].scenario.leaderHeadway 1.2s
config *.node[*].scenario.leaderSpeed 130kmph
config *.node[*].appl_type "\"SimplePlatooningApp\""
config *.node[*].appl.*.scalar-recording true
config *.node[*].appl.*.vector-recording true
config *.node[0].appl.breakRanksSafetyDistance 2m
config *.node[*].appl.minSpeed 120kmph
config *.node[*].appl.maxSpeed 140kmph
config *.node[*].protocol_type "\"SimplePlatooningBeaconing\""
config *.node[*].prot.*.scalar-recording true
config *.node[*].prot.*.vector-recording true
config *.node[*].prot.beaconingInterval 0.1s
config *.node[*].prot.priority 4
config *.node[*].prot.packetSize 200
config **.traffic_type "\"PlatoonsTrafficManager\""
config **.traffic.platoonInsertTime "1 s"
config **.traffic.platoonInsertSpeed 130kmph
config **.traffic.nCars 9
config **.traffic.platoonSize 9
config **.traffic.nLanes 1
config **.traffic.platooningVType "\"vtypeauto\""
config **.traffic.controller "\"CACC\""
config **.traffic.platoonInsertDistance 2m
config **.traffic.platoonInsertHeadway 0s
config **.traffic.platoonLeaderHeadway 1.2s
config **.scalar-recording false
config **.vector-recording false

vector 0 Highway.node[0].appl distance ETV
vector 1 Highway.node[0].appl relativeSpeed ETV
vector 2 Highway.node[0].appl nodeId ETV
vector 3 Highway.node[0].appl acceleration ETV
vector 4 Highway.node[0].appl controllerAcceleration ETV
vector 5 Highway.node[0].appl speed ETV
vector 6 Highway.node[0].appl posx ETV
vector 7 Highway.node[0].appl posy ETV
vector 8 Highway.node[1].appl distance ETV
vector 9 Highway.node[1].appl relativeSpeed ETV
vector 10 Highway.node[1].appl nodeId ETV
vector 11 Highway.node[1].appl acceleration ETV
vector 12 Highway.node[1].appl controllerAcceleration ETV
vector 13 Highway.node[1].appl speed ETV
vector 14 Highway.node[1].appl posx ETV
vector 15 Highway.node[1].appl posy ETV
vector 16 Highway.node[2].appl distance ETV
vector 17 Highway.node[2].appl relativeSpeed ETV
vector 18 Highway.node[2].appl nodeId ETV
vector 19 Highway.node[2].appl acceleration ETV
vector 20 Highway.node[2].appl controllerAcceleration ETV
vector 21 Highway.node[2].appl speed ETV
vector 22 Highway.node[2].appl posx ETV
vector 23 Highway.node[2].appl posy ETV
vector 24 Highway.node[3].appl distance ETV
vector 25 Highway.node[3].appl relativeSpeed ETV
vector 26 Highway.node[3].appl nodeId ETV
vector 27 Highway.node[3].appl acceleration ETV
vector 28 Highway.node[3].appl controllerAcceleration ETV
vector 29 Highway.node[3].appl speed ETV
vector 30 Highway.node[3].appl posx ETV
vector 31 Highway.node[3].appl posy ETV
vector 32 Highway.node[4].appl distance ETV
vector 33 Highway.node[4].appl relativeSpeed ETV
vector 34 Highway.node[4].appl nodeId ETV
vector 35 Highway.node[4].appl acceleration ETV
vector 36 Highway.node[4].appl controllerAcceleration ETV
vector 37 Highway.node[4].appl speed ETV
vector 38 Highway.node[4].appl posx ETV
vector 39 Highway.node[4].appl posy ETV
vector 40 Highway.node[5].appl distance ETV
vector 41 Highway.node[5].appl relativeSpeed ETV
vector 42 Highway.node[5].appl nodeId ETV
vector 43 Highway.node[5].appl acceleration ETV
vector 44 Highway.node[5].appl controllerAcceleration ETV
vector 45 Highway.node[5].appl speed ETV
vector 46 Highway.node[5].appl posx ETV
vector 47 Highway.node[5].appl posy ETV
vector 48 Highway.node[6].appl distance ETV
vector 49 Highway.node[6].appl relativeSpeed ETV
vector 50 Highway.node[6].appl nodeId ETV
vector 51 Highway.node[6].appl acceleration ETV
vector 52 Highway.node[6].appl controllerAcceleration ETV
vector 53 Highway.node[6].appl speed ETV
vector 54 Highway.node[6].appl posx ETV
vector 55 Highway.node[6].appl posy ETV
vector 56 Highway.node[7].appl distance ETV
vector 57 Highway.node[7].appl relativeSpeed ETV
vector 58 Highway.node[7].appl nodeId ETV
vector 59 Highway.node[7].appl acceleration ETV
vector 60 Highway.node[7].appl controllerAcceleration ETV
vector 61 Highway.node[7].appl speed ETV
vector 62 Highway.node[7].appl posx ETV
vector 63 Highway.node[7].appl posy ETV
vector 64 Highway.node[8].appl distance ETV
vector 65 Highway.node[8].appl relativeSpeed ETV
vector 66 Highway.node[8].appl nodeId ETV
vector 67 Highway.node[8].appl acceleration ETV
vector 68 Highway.node[8].appl controllerAcceleration ETV
vector 69 Highway.node[8].appl speed ETV
vector 70 Highway.node[8].appl posx ETV
vector 71 Highway.node[8].appl posy ETV
vector 72 Highway.node[1].prot leaderDelay ETV
vector 73 Highway.node[1].prot leaderDelayId ETV
vector 74 Highway.node[1].prot frontDelay ETV
vector 75 Highway.node[1].prot frontDelayId ETV
vector 76 Highway.node[2].prot leaderDelay ETV
vector 77 Highway.node[2].prot leaderDelayId ETV
vector 78 Highway.node[3].prot leaderDelay ETV
vector 79 Highway.node[3].prot leaderDelayId ETV
vector 80 Highway.node[4].prot leaderDelay ETV
vector 81 Highway.node[4].prot leaderDelayId ETV
vector 82 Highway.node[5].prot leaderDelay ETV
vector 83 Highway.node[5].prot leaderDelayId ETV
vector 84 Highway.node[6].prot leaderDelay ETV
vector 85 Highway.node[6].prot leaderDelayId ETV
vector 86 Highway.node[7].prot leaderDelay ETV
vector 87 Highway.node[7].prot leaderDelayId ETV
vector 88 Highway.node[8].prot leaderDelay ETV
vector 89 Highway.node[8].prot leaderDelayId ETV
vector 90 Highway.node[8].prot frontDelay ETV
vector 91 Highway.node[8].prot frontDelayId ETV
vector 92 Highway.node[7].prot frontDelay ETV
vector 93 Highway.node[7].prot frontDelayId ETV
vector 94 Highway.node[2].prot frontDelay ETV
vector 95 Highway.node[2].prot frontDelayId ETV
vector 96 Highway.node[5].prot frontDelay ETV
vector 97 Highway.node[5].prot frontDelayId ETV
vector 98 Highway.node[3].prot frontDelay ETV
vector 99 Highway.node[3].prot frontDelayId ETV
vector 100 Highway.node[6].prot frontDelay ETV
vector 101 Highway.node[6].prot frontDelayId ETV
vector 102 Highway.node[4].prot frontDelay ETV
vector 103 Highway.node[4].prot frontDelayId ETV
vector 104 Highway.node[0].prot nodeId ETV
vector 105 Highway.node[0].prot busyTime ETV
vector 106 Highway.node[0].prot collisions ETV
vector 107 Highway.node[1].prot nodeId ETV
vector 108 Highway.node[1].prot busyTime ETV
vector 109 Highway.node[1].prot collisions ETV
vector 110 Highway.node[2].prot nodeId ETV
vector 111 Highway.node[2].prot busyTime ETV
vector 112 Highway.node[2].prot collisions ETV
vector 113 Highway.node[3].prot nodeId ETV
vector 114 Highway.node[3].prot busyTime ETV
vector 115 Highway.node[3].prot collisions ETV
vector 116 Highway.node[4].prot nodeId ETV
vector 117 Highway.node[4].prot busyTime ETV
vector 118 Highway.node[4].prot collisions ETV
vector 119 Highway.node[5].prot nodeId ETV
vector 120 Highway.node[5].prot busyTime ETV
vector 121 Highway.node[5].prot collisions ETV
vector 122 Highway.node[6].prot nodeId ETV
vector 123 Highway.node[6].prot busyTime ETV
vector 124 Highway.node[6].prot collisions ETV
vector 125 Highway.node[7].prot nodeId ETV
vector 126 Highway.node[7].prot busyTime ETV
vector 127 Highway.node[7].prot collisions ETV
vector 128 Highway.node[8].prot nodeId ETV
vector 129 Highway.node[8].prot busyTime ETV
vector 130 Highway.node[8].prot collisions ETV
0	113	1.11	-1
0	798	1.21	-1
0	1483	1.31	-1
0	2168	1.41	-1
0	2853	1.51	-1
0	3538	1.61	-1
0	4223	1.71	-1
0	4908	1.81	-1
0	5593	1.91	-1
0	6287	2.01	-1
0	6972	2.11	-1
0	7657	2.21	-1
0	8342	2.31	-1
0	9027	2.41	-1
0	9712	2.51	-1
0	10397	2.61	-1
0	11082	2.71	-1
0	11767	2.81	-1
0	12452	2.91	-1
0	13146	3.01	-1
0	13831	3.11	-1
0	14516	3.21	-1
0	15201	3.31	-1
0	15886	3.41	-1
0	16571	3.51	-1
0	17256	3.61	-1
0	17941	3.71	-1
0	18626	3.81	-1
0	19311	3.91	-1
0	20005	4.01	-1
0	20690	4.11	-1
0	21375	4.21	-1
0	22060	4.31	-1
0	22745	4.41	-1
0	23430	4.51	-1
0	24115	4.61	-1
0	24800	4.71	-1
0	25485	4.81	-1
0	26170	4.91	-1
0	26864	5.01	-1
0	27549	5.11	-1
0	28234	5.21	-1
0	28919	5.31	-1
0	29604	5.41	-1
0	30289	5.51	-1
0	30974	5.61	-1
0	31659	5.71	-1
0	32344	5.81	-1
0	33029	5.91	-1
0	33723	6.01	-1
0	34408	6.11	-1
0	35093	6.21	-1
0	35778	6.31	-1
0	36463	6.41	-1
0	37148	6.51	-1
0	37833	6.61	-1
0	38518	6.71	-1
0	39203	6.81	-1
0	39888	6.91	-1
0	40582	7.01	-1
0	41267	7.11	-1
0	41952	7.21	-1
0	42637	7.31	-1
0	43322	7.41	-1
0	44007	7.51	-1
0	44692	7.61	-1
0	45377	7.71	-1
0	46062	7.81	-1
0	46747	7.91	-1
0	47441	8.01	-1
0	48126	8.11	-1
0	48811	8.21	-1
0	49496	8.31	-1
0	50181	8.41	-1
0	50866	8.51	-1
0	51551	8.61	-1
0	52236	8.71	-1
0	52921	8.81	-1
0	53606	8.91	-1
0	54300	9.01	-1
0	54985	9.11	-1
0	55670	9.21	-1
0	56355	9.31	-1
0	57040	9.41	-1
0	57725	9.51	-1
0	58410	9.61	-1
0	59095	9.71	-1
0	59780	9.81	-1
0	60465	9.91	-1
0	63472	10.01	-1
0	64157	10.11	-1
0	64842	10.21	-1
0	65527	10.31	-1
0	66212	10.41	-1
0	66897	10.51	-1
0	67582	10.61	-1
0	68267	10.71	-1
0	68952	10.81	-1
0	69637	10.91	-1
0	70331	11.01	-1
0	71016	11.11	-1
0	71701	11.21	-1
0	72386	11.31	-1
0	73071	11.41	-1
0	73756	11.51	-1
0	74441	11.61	-1
0	75126	11.71	-1
0	75811	11.81	-1
0	76496	11.91	-1
0	77190	12.01	-1
0	77875	12.11	-1
0	78560	12.21	-1
0	79245	12.31	-1
0	79930	12.41	-1
0	80615	12.51	-1
0	81300	12.61	-1
0	81985	12.71	-1
0	82670	12.81	-1
0	83355	12.91	-1
0	84049	13.01	-1
0	84734	13.11	-1
0	85419	13.21	-1
0	86104	13.31	-1
0	86789	13.41	-1
0	87474	13.51	-1
0	88159	13.61	-1
0	88844	13.71	-1
0	89529	13.81	-1
0	90214	13.91	-1
0	90908	14.01	-1
0	91593	14.11	-1
0	92278	14.21	-1
0	92963	14.31	-1
0	93648	14.41	-1
0	94333	14.51	-1
0	95018	14.61	-1
0	95703	14.71	-1
0	96388	14.81	-1
0	97073	14.91	-1
0	97767	15.01	-1
0	98452	15.11	-1
0	99137	15.21	-1
0	99822	15.31	-1
0	100507	15.41	-1
0	101192	15.51	-1
0	101877	15.61	-1
0	102562	15.71	-1
0	103247	15.81	-1
0	103932	15.91	-1
0	104626	16.01	-1
0	105311	16.11	-1
0	105996	16.21	-1
0	106681	16.31	-1
0	107366	16.41	-1
0	108051	16.51	-1
0	108736	16.61	-1
0	109421	16.71	-1
0	110106	16.81	-1
0	110791	16.91	-1
0	111485	17.01	-1
0	112170	17.11	-1
0	112855	17.21	-1
0	113540	17.31	-1
0	114225	17.41	-1
0	114910	17.51	-1
0	115595	17.61	-1
0	116280	17.71	-1
0	116965	17.81	-1
0	117650	17.91	-1
0	118344	18.01	-1
0	119029	18.11	-1
0	119714	18.21	-1
0	120399	18.31	-1
0	121084	18.41	-1
0	121769	18.51	-1
0	122454	18.61	-1
0	123139	18.71	-1
0	123824	18.81	-1
0	124509	18.91	-1
0	125203	19.01	-1
0	125888	19.11	-1
0	126573	19.21	-1
0	127258	19.31	-1
0	127943	19.41	-1
0	128628	19.51	-1
0	129313	19.61	-1
0	129998	19.71	-1
0	130683	19.81	-1
0	131368	19.91	-1
0	132062	20.01	-1
0	132747	20.11	-1
0	133432	20.21	-1
0	134117	20.31	-1
0	134802	20.41	-1
0	135487	20.51	-1
0	136172	20.61	-1
0	136857	20.71	-1
0	137542	20.81	-1
0	138227	20.91	-1
0	138921	21.01	-1
0	139606	21.11	-1
0	140291	21.21	-1
0	140976	21.31	-1
0	141661	21.41	-1
0	142346	21.51	-1
0	143031	21.61	-1
0	143716	21.71	-1
0	144401	21.81	-1
0	145086	21.91	-1
0	145780	22.01	-1
0	146465	22.11	-1
0	147150	22.21	-1
0	147835	22.31	-1
0	148520	22.41	-1
0	149205	22.51	-1
0	149890	22.61	-1
0	150575	22.71	-1
0	151260	22.81	-1
0	151945	22.91	-1
0	152639	23.01	-1
0	153324	23.11	-1
0	154009	23.21	-1
0	154694	23.31	-1
0	155379	23.41	-1
0	156064	23.51	-1
0	156749	23.61	-1
0	157434	23.71	-1
0	158119	23.81	-1
0	158804	23.91	-1
0	159498	24.01	-1
0	160183	24.11	-1
0	160868	24.21	-1
0	161553	24.31	-1
0	162238	24.41	-1
0	162923	24.51	-1
0	163608	24.61	-1
0	164293	24.71	-1
0	164978	24.81	-1
0	165663	24.91	-1
0	166357	25.01	-1
0	167042	25.11	-1
0	167727	25.21	-1
0	168412	25.31	-1
0	169097	25.41	-1
0	169782	25.51	-1
0	170467	25.61	-1
0	171152	25.71	-1
0	171837	25.81	-1
0	172522	25.91	-1
0	173216	26.01	-1
0	173901	26.11	-1
0	174586	26.21	-1
0	175271	26.31	-1
0	175956	26.41	-1
0	176641	26.51	-1
0	177326	26.61	-1
0	178011	26.71	-1
0	178696	26.81	-1
0	179381	26.91	-1
0	180075	27.01	-1
0	180760	27.11	-1
0	181445	27.21	-1
0	182130	27.31	-1
0	182815	27.41	-1
0	183500	27.51	-1
0	184185	27.61	-1
0	184870	27.71	-1
0	185555	27.81	-1
0	186240	27.91	-1
0	186934	28.01	-1
0	187619	28.11	-1
0	188304	28.21	-1
0	188989	28.31	-1
0	189674	28.41	-1
0	190359	28.51	-1
0	191044	28.61	-1
0	191729	28.71	-1
0	192414	28.81	-1
0	193099	28.91	-1
0	193793	29.01	-1
0	194478	29.11	-1
0	195163	29.21	-1
0	195848	29.31	-1
0	196533	29.41	-1
0	197218	29.51	-1
0	197903	29.61	-1
0	198588	29.71	-1
0	199273	29.81	-1
0	199958	29.91	-1
0	200652	30.01	-1
0	201337	30.11	-1
0	202022	30.21	-1
0	202707	30.31	-1
0	203392	30.41	-1
0	204077	30.51	-1
0	204762	30.61	-1
0	205447	30.71	-1
0	206132	30.81	-1
0	206817	30.91	-1
0	207511	31.01	-1
0	208196	31.11	-1
0	208881	31.21	-1
0	209566	31.31	-1
0	210251	31.41	-1
0	210936	31.51	-1
0	211621	31.61	-1
0	212306	31.71	-1
0	212991	31.81	-1
0	213676	31.91	-1
0	214370	32.01	-1
0	215055	32.11	-1
0	215740	32.21	-1
0	216425	32.31	-1
0	217110	32.41	-1
0	217795	32.51	-1
0	218480	32.61	-1
0	219165	32.71	-1
0	219850	32.81	-1
0	220535	32.91	-1
0	221229	33.01	-1
0	221914	33.11	-1
0	222599	33.21	-1
0	223284	33.31	-1
0	223969	33.41	-1
0	224654	33.51	-1
0	225339	33.61	-1
0	226024	33.71	-1
0	226709	33.81	-1
0	227394	33.91	-1
0	228088	34.01	-1
0	228773	34.11	-1
0	229458	34.21	-1
0	230143	34.31	-1
0	230828	34.41	-1
0	231513	34.51	-1
0	232198	34.61	-1
0	232883	34.71	-1
0	233568	34.81	-1
0	234253	34.91	-1
0	234947	35.01	-1
0	235632	35.11	-1
0	236317	35.21	-1
0	237002	35.31	-1
0	237687	35.41	-1
0	238372	35.51	-1
0	239057	35.61	-1
0	239742	35.71	-1
0	240427	35.81	-1
0	241112	35.91	-1
0	241806	36.01	-1
0	242491	36.11	-1
0	243176	36.21	-1
0	243861	36.31	-1
0	244546	36.41	-1
0	245231	36.51	-1
0	245916	36.61	-1
0	246601	36.71	-1
0	247286	36.81	-1
0	247971	36.91	-1
0	248665	37.01	-1
0	249350	37.11	-1
0	250035	37.21	-1
0	250720	37.31	-1
0	251405	37.41	-1
0	252090	37.51	-1
0	252775	37.61	-1
0	253460	37.71	-1
0	254145	37.81	-1
0	254830	37.91	-1
0	255524	38.01	-1
0	256209	38.11	-1
0	256894	38.21	-1
0	257579	38.31	-1
0	258264	38.41	-1
0	258949	38.51	-1
0	259634	38.61	-1
0	260319	38.71	-1
0	261004	38.81	-1
0	261689	38.91	-1
0	262383	39.01	-1
0	263068	39.11	-1
0	263753	39.21	-1
0	264438	39.31	-1
0	265123	39.41	-1
0	265808	39.51	-1
0	266493	39.61	-1
0	267178	39.71	-1
0	267863	39.81	-1
0	268548	39.91	-1
0	269242	40.01	-1
0	269927	40.11	-1
0	270612	40.21	-1
0	271297	40.31	-1
0	271982	40.41	-1
0	272667	40.51	-1
0	273352	40.61	-1
0	274037	40.71	-1
0	274722	40.81	-1
0	275407	40.91	-1
0	276101	41.01	-1
0	276786	41.11	-1
0	277471	41.21	-1
0	278156	41.31	-1
0	278841	41.41	-1
0	279526	41.51	-1
0	280211	41.61	-1
0	280896	41.71	-1
0	281581	41.81	-1
0	282266	41.91	-1
0	282960	42.01	-1
0	283645	42.11	-1
0	284330	42.21	-1
0	285015	42.31	-1
0	285700	42.41	-1
0	286385	42.51	-1
0	287070	42.61	-1
0	287755	42.71	-1
0	288440	42.81	-1
0	289125	42.91	-1
0	289819	43.01	-1
0	290504	43.11	-1
0	291189	43.21	-1
0	291874	43.31	-1
0	292559	43.41	-1
0	293244	43.51	-1
0	293929	43.61	-1
0	294614	43.71	-1
0	295299	43.81	-1
0	295984	43.91	-1
0	296678	44.01	-1
0	297363	44.11	-1
0	298048	44.21	-1
0	298733	44.31	-1
0	299418	44.41	-1
0	300103	44.51	-1
0	300788	44.61	-1
0	301473	44.71	-1
0	302158	44.81	-1
0	302843	44.91	-1
0	303537	45.01	-1
0	304222	45.11	-1
0	304907	45.21	-1
0	305592	45.31	-1
0	306277	45.41	-1
0	306962	45.51	-1
0	307647	45.61	-1
0	308332	45.71	-1
0	309017	45.81	-1
0	309702	45.91	-1
0	310396	46.01	-1
0	311081	46.11	-1
0	311766	46.21	-1
0	312451	46.31	-1
0	313136	46.41	-1
0	313821	46.51	-1
0	314506	46.61	-1
0	315191	46.71	-1
0	315876	46.81	-1
0	316561	46.91	-1
0	317255	47.01	-1
0	317940	47.11	-1
0	318625	47.21	-1
0	319310	47.31	-1
0	319995	47.41	-1
0	320680	47.51	-1
0	321365	47.61	-1
0	322050	47.71	-1
0	322735	47.81	-1
0	323420	47.91	-1
0	324114	48.01	-1
0	324799	48.11	-1
0	325484	48.21	-1
0	326169	48.31	-1
0	326854	48.41	-1
0	327539	48.51	-1
0	328224	48.61	-1
0	328909	48.71	-1
0	329594	48.81	-1
0	330279	48.91	-1
0	330973	49.01	-1
0	331658	49.11	-1
0	332343	49.21	-1
0	333028	49.31	-1
0	333713	49.41	-1
0	334398	49.51	-1
0	335083	49.61	-1
0	335768	49.71	-1
0	336453	49.81	-1
0	337138	49.91	-1
0	337832	50.01	-1
0	338517	50.11	-1
0	339202	50.21	-1
0	339887	50.31	-1
0	340572	50.41	-1
0	341257	50.51	-1
0	341942	50.61	-1
0	342627	50.71	-1
0	343312	50.81	-1
0	343997	50.91	-1
0	344691	51.01	-1
0	345376	51.11	-1
0	346061	51.21	-1
0	346746	51.31	-1
0	347431	51.41	-1
0	348116	51.51	-1
0	348801	51.61	-1
0	349486	51.71	-1
0	350171	51.81	-1
0	350856	51.91	-1
0	351550	52.01	-1
0	352235	52.11	-1
0	352920	52.21	-1
0	353605	52.31	-1
0	354290	52.41	-1
0	354975	52.51	-1
0	355660	52.61	-1
0	356345	52.71	-1
0	357030	52.81	-1
0	357715	52.91	-1
0	358409	53.01	-1
0	359094	53.11	-1
0	359779	53.21	-1
0	360464	53.31	-1
0	361149	53.41	-1
0	361834	53.51	-1
0	362519	53.61	-1
0	363204	53.71	-1
0	363889	53.81	-1
0	364574	53.91	-1
0	365268	54.01	-1
0	365953	54.11	-1
0	366638	54.21	-1
0	367323	54.31	-1
0	368008	54.41	-1
0	368693	54.51	-1
0	369378	54.61	-1
0	370063	54.71	-1
0	370748	54.81	-1
0	371433	54.91	-1
0	372127	55.01	-1
0	372812	55.11	-1
0	373497	55.21	-1
0	374182	55.31	-1
0	374867	55.41	-1
0	375552	55.51	-1
0	376237	55.61	-1
0	376922	55.71	-1
0	377607	55.81	-1
0	378292	55.91	-1
0	378986	56.01	-1
0	379671	56.11	-1
0	380356	56.21	-1
0	381041	56.31	-1
0	381726	56.41	-1
0	382411	56.51	-1
0	383096	56.61	-1
0	383781	56.71	-1
0	384466	56.81	-1
0	385151	56.91	-1
0	385845	57.01	-1
0	386530	57.11	-1
0	387215	57.21	-1
0	387900	57.31	-1
0	388585	57.41	-1
0	389270	57.51	-1
0	389955	57.61	-1
0	390640	57.71	-1
0	391325	57.81	-1
0	392010	57.91	-1
0	392704	58.01	-1
0	393389	58.11	-1
0	394074	58.21	-1
0	394759	58.31	-1
0	395444	58.41	-1
0	396129	58.51	-1
0	396814	58.61	-1
0	397499	58.71	-1
0	398184	58.81	-1
0	398869	58.91	32.5376
0	399563	59.01	32.6268
0	400248	59.11	32.7167
0	400933	59.21	32.8079
0	401618	59.31	32.9006
0	402303	59.41	32.9949
0	402988	59.51	33.0911
0	403673	59.61	33.1892
0	404358	59.71	33.2891
0	405043	59.81	33.3909
0	405728	59.91	33.4945
0	406422	60.01	33.5997
0	407107	60.11	33.7064
0	407792	60.21	33.8144
0	408477	60.31	33.9237
0	409162	60.41	34.0339
0	409847	60.51	34.145
0	410532	60.61	34.2568
0	411217	60.71	34.3691
0	411902	60.81	34.4818
0	412587	60.91	34.5946
0	413281	61.01	34.7075
0	413966	61.11	34.8202
0	414651	61.21	34.9328
0	415336	61.31	35.0449
0	416021	61.41	35.1566
0	416706	61.51	35.2678
0	417391	61.61	35.3783
0	418076	61.71	35.488
0	418761	61.81	35.597
0	419446	61.91	35.7051
0	420140	62.01	35.8123
0	420825	62.11	35.9186
0	421510	62.21	36.0239
0	422195	62.31	36.1282
0	422880	62.41	36.2314
0	423565	62.51	36.3336
0	424250	62.61	36.4348
0	424935	62.71	36.5349
0	425620	62.81	36.6339
0	426305	62.91	36.7318
0	426999	63.01	36.8288
0	427684	63.11	36.9247
0	428369	63.21	37.0197
0	429054	63.31	37.1139
0	429739	63.41	37.2072
0	430424	63.51	37.2997
0	431109	63.61	37.3916
0	431794	63.71	37.4829
0	432479	63.81	37.5736
0	433164	63.91	37.6639
0	433858	64.01	37.7537
0	434543	64.11	37.8432
0	435228	64.21	37.9324
0	435913	64.31	38.0213
0	436598	64.41	38.11
0	437283	64.51	38.1985
0	437968	64.61	38.2869
0	438653	64.71	38.3752
0	439338	64.81	38.4635
0	440023	64.91	38.5517
0	440717	65.01	38.6398
0	441402	65.11	38.728
0	442087	65.21	38.8161
0	442772	65.31	38.9043
0	443457	65.41	38.9925
0	444142	65.51	39.0807
0	444827	65.61	39.169
0	445512	65.71	39.2574
0	446197	65.81	39.3457
0	446882	65.91	39.4341
0	447576	66.01	39.5226
0	448261	66.11	39.6111
0	448946	66.21	39.6997
0	449631	66.31	39.7883
0	450316	66.41	39.8769
0	451001	66.51	39.9656
0	451686	66.61	40.0543
0	452371	66.71	40.1431
0	453056	66.81	40.2318
0	453741	66.91	40.3206
0	454435	67.01	40.4094
0	455120	67.11	40.4983
0	455805	67.21	40.5871
0	456490	67.31	40.676
0	457175	67.41	40.7649
0	457860	67.51	40.8538
0	458545	67.61	40.9427
0	459230	67.71	41.0316
0	459915	67.81	41.1205
0	460600	67.91	41.2094
0	461294	68.01	41.2984
0	461979	68.11	41.3873
0	462664	68.21	41.4762
0	463349	68.31	41.5651
0	464034	68.41	41.6541
0	464719	68.51	41.743
0	465404	68.61	41.8319
0	466089	68.71	41.9208
0	466774	68.81	42.0097
0	467459	68.91	42.0986
0	468153	69.01	42.1876
0	468838	69.11	42.2765
0	469523	69.21	42.3654
0	470208	69.31	42.4543
0	470893	69.41	42.5432
0	471578	69.51	42.6321
0	472263	69.61	42.721
0	472948	69.71	42.8099
0	473633	69.81	42.8988
0	474318	69.91	42.9877
0	475012	70.01	43.0766
0	475697	70.11	43.1655
0	476382	70.21	43.2544
0	477067	70.31	43.3432
0	477752	70.41	43.4321
0	478437	70.51	43.521
0	479122	70.61	43.6099
0	479807	70.71	43.6988
0	480492	70.81	43.7877
0	481177	70.91	43.8766
0	481871	71.01	43.9655
0	482556	71.11	44.0544
0	483241	71.21	44.1433
0	483926	71.31	44.2321
0	484611	71.41	44.321
0	485296	71.51	44.4099
0	485981	71.61	44.4988
0	486666	71.71	44.5877
0	487351	71.81	44.6766
0	488036	71.91	44.7655
0	488730	72.01	44.8544
0	489415	72.11	44.9432
0	490100	72.21	45.0321
0	490785	72.31	45.121
0	491470	72.41	45.2099
0	492155	72.51	45.2988
0	492840	72.61	45.3877
0	493525	72.71	45.4766
0	494210	72.81	45.5655
0	494895	72.91	45.6544
0	495589	73.01	45.7433
0	496274	73.11	45.8321
0	496959	73.21	45.921
0	497644	73.31	46.0099
0	498329	73.41	46.0988
0	499014	73.51	46.1877
0	499699	73.61	46.2766
0	500384	73.71	46.3655
0	501069	73.81	46.4544
0	501754	73.91	46.5433
0	502448	74.01	46.6322
0	503133	74.11	46.721
0	503818	74.21	46.8099
0	504503	74.31	46.8988
0	505188	74.41	46.9877
0	505873	74.51	47.0766
0	506558	74.61	47.1655
0	507243	74.71	47.2544
0	507928	74.81	47.3433
0	508613	74.91	47.4322
0	509307	75.01	47.5211
0	509992	75.11	47.6099
0	510677	75.21	47.6988
0	511362	75.31	47.7877
0	512047	75.41	47.8766
0	512732	75.51	47.9655
0	513417	75.61	48.0544
0	514102	75.71	48.1433
0	514787	75.81	48.2322
0	515472	75.91	48.3211
0	516166	76.01	48.41
0	516851	76.11	48.4988
0	517536	76.21	48.5877
0	518221	76.31	48.6766
0	518906	76.41	48.7655
0	519591	76.51	48.8544
0	520276	76.61	48.9433
0	520961	76.71	49.0322
0	521646	76.81	49.1211
0	522331	76.91	49.21
0	523025	77.01	49.2989
0	523710	77.11	49.3877
0	524395	77.21	49.4766
0	525080	77.31	49.5655
0	525765	77.41	49.6544
0	526450	77.51	49.7433
0	527135	77.61	49.8322
0	527820	77.71	49.9211
0	528505	77.81	50.01
0	529190	77.91	50.0989
0	529884	78.01	50.1878
0	530569	78.11	50.2766
0	531254	78.21	50.3655
0	531939	78.31	50.4544
0	532624	78.41	50.5433
0	533309	78.51	50.6322
0	533994	78.61	50.7211
0	534679	78.71	50.81
0	535364	78.81	50.8989
0	536049	78.91	50.9878
0	536743	79.01	51.0767
0	537428	79.11	51.1655
0	538113	79.21	51.2544
0	538798	79.31	51.3433
0	539483	79.41	51.4322
0	540168	79.51	51.5211
0	540853	79.61	51.61
0	541538	79.71	51.6989
0	542223	79.81	51.7878
0	542908	79.91	51.8767
0	543602	80.01	51.9656
0	544287	80.11	52.0544
0	544972	80.21	52.1433
0	545657	80.31	52.2322
0	546342	80.41	52.3211
0	547027	80.51	52.41
0	547712	80.61	52.4989
0	548397	80.71	52.5878
0	549082	80.81	52.6767
0	549767	80.91	52.7656
0	550461	81.01	52.8545
0	551146	81.11	52.9433
0	551831	81.21	53.0322
0	552516	81.31	53.1211
0	553201	81.41	53.21
0	553886	81.51	53.2989
0	554571	81.61	53.3878
0	555256	81.71	53.4767
0	555941	81.81	53.5656
0	556626	81.91	53.6545
0	557320	82.01	53.7434
0	558005	82.11	53.8322
0	558690	82.21	53.9211
0	559375	82.31	54.01
0	560060	82.41	54.0989
0	560745	82.51	54.1878
0	561430	82.61	54.2767
0	562115	82.71	54.3656
0	562800	82.81	54.4545
0	563485	82.91	54.5434
0	564179	83.01	54.6323
0	564864	83.11	54.7211
0	565549	83.21	54.81
0	566234	83.31	54.8989
0	566919	83.41	54.9878
0	567604	83.51	55.0767
0	568289	83.61	55.1656
0	568974	83.71	55.2545
0	569659	83.81	55.3434
0	570344	83.91	55.4323
0	571038	84.01	55.5212
0	571723	84.11	55.61
0	572408	84.21	55.6989
0	573093	84.31	55.7878
0	573778	84.41	55.8767
0	574463	84.51	55.9656
0	575148	84.61	56.0545
0	575833	84.71	56.1434
0	576518	84.81	56.2323
0	577203	84.91	56.3212
0	577897	85.01	56.4101
0	578582	85.11	56.4989
0	579267	85.21	56.5878
0	579952	85.31	56.6767
0	580637	85.41	56.7656
0	581322	85.51	56.8545
0	582007	85.61	56.9434
0	582692	85.71	57.0323
0	583377	85.81	57.1212
0	584062	85.91	57.2101
0	584756	86.01	57.299
0	585441	86.11	57.3878
0	586126	86.21	57.4767
0	586811	86.31	57.5656
0	587496	86.41	57.6545
0	588181	86.51	57.7434
0	588866	86.61	57.8323
0	589551	86.71	57.9212
0	590236	86.81	58.0101
0	590921	86.91	58.099
0	591615	87.01	58.1879
0	592300	87.11	58.2767
0	592985	87.21	58.3656
0	593670	87.31	58.4545
0	594355	87.41	58.5434
0	595040	87.51	58.6323
0	595725	87.61	58.7212
0	596410	87.71	58.8101
0	597095	87.81	58.899
0	597780	87.91	58.9879
0	598474	88.01	59.0768
0	599159	88.11	59.1656
0	599844	88.21	59.2545
0	600529	88.31	59.3434
0	601214	88.41	59.4323
0	601899	88.51	59.5212
0	602584	88.61	59.6101
0	603269	88.71	59.699
0	603954	88.81	59.7879
0	604639	88.91	59.8768
0	605333	89.01	59.9657
0	606018	89.11	60.0545
0	606703	89.21	60.1434
0	607388	89.31	60.2323
0	608073	89.41	60.3212
0	608758	89.51	60.4101
0	609443	89.61	60.499
0	610128	89.71	60.5879
0	610813	89.81	60.6768
0	611498	89.91	60.7657
0	612192	90.01	60.8546
0	612877	90.11	60.9434
0	613562	90.21	61.0323
0	614247	90.31	61.1212
0	614932	90.41	61.2101
0	615617	90.51	61.299
0	616302	90.61	61.3879
0	616987	90.71	61.4768
0	617672	90.81	61.5657
0	618357	90.91	61.6546
0	619051	91.01	61.7435
0	619736	91.11	61.8323
0	620421	91.21	61.9212
0	621106	91.31	62.0101
0	621791	91.41	62.099
0	622476	91.51	62.1879
0	623161	91.61	62.2768
0	623846	91.71	62.3657
0	624531	91.81	62.4546
0	625216	91.91	62.5435
0	625910	92.01	62.6324
0	626595	92.11	62.7212
0	627280	92.21	62.8101
0	627965	92.31	62.899
0	628650	92.41	62.9879
0	629335	92.51	63.0768
0	630020	92.61	63.1657
0	630705	92.71	63.2546
0	631390	92.81	63.3435
0	632075	92.91	63.4324
0	632769	93.01	63.5213
0	633454	93.11	63.6101
0	634139	93.21	63.699
0	634824	93.31	63.7879
0	635509	93.41	63.8768
0	636194	93.51	63.9657
0	636879	93.61	64.0546
0	637564	93.71	64.1435
0	638249	93.81	64.2324
0	638934	93.91	64.3213
0	639628	94.01	64.4102
0	640313	94.11	64.499
0	640998	94.21	64.5879
0	641683	94.31	64.6768
0	642368	94.41	64.7657
0	643053	94.51	64.8546
0	643738	94.61	64.9435
0	644423	94.71	65.0324
0	645108	94.81	65.1213
0	645793	94.91	65.2102
0	646487	95.01	65.2991
0	647172	95.11	65.3879
0	647857	95.21	65.4768
0	648542	95.31	65.5657
0	649227	95.41	65.6546
0	649912	95.51	65.7435
0	650597	95.61	65.8324
0	651282	95.71	65.9213
0	651967	95.81	66.0102
0	652652	95.91	66.0991
0	653346	96.01	66.188
0	654031	96.11	66.2768
0	654716	96.21	66.3657
0	655401	96.31	66.4546
0	656086	96.41	66.5435
0	656771	96.51	66.6324
0	657456	96.61	66.7213
0	658141	96.71	66.8102
0	658826	96.81	66.8991
0	659511	96.91	66.988
0	660205	97.01	67.0769
0	660890	97.11	67.1657
0	661575	97.21	67.2546
0	662260	97.31	67.3435
0	662945	97.41	67.4324
0	663630	97.51	67.5213
0	664315	97.61	67.6102
0	665000	97.71	67.6991
0	665685	97.81	67.788
0	666370	97.91	67.8769
0	667064	98.01	67.9658
0	667749	98.11	68.0546
0	668434	98.21	68.1435
0	669119	98.31	68.2324
0	669804	98.41	68.3213
0	670489	98.51	68.4102
0	671174	98.61	68.4991
0	671859	98.71	68.588
0	672544	98.81	68.6769
0	673229	98.91	68.7658
0	673923	99.01	68.8547
0	674608	99.11	68.9435
0	675293	99.21	69.0324
0	675978	99.31	69.1213
0	676663	99.41	69.2102
0	677348	99.51	69.2991
0	678033	99.61	69.388
0	678718	99.71	69.4769
0	679403	99.81	69.5658
0	680088	99.91	69.6547
1	113	1.11	0
1	798	1.21	0
1	1483	1.31	0
1	2168	1.41	0
1	2853	1.51	0
1	3538	1.61	0
1	4223	1.71	0
1	4908	1.81	0
1	5593	1.91	0
1	6287	2.01	0
1	6972	2.11	0
1	7657	2.21	0
1	8342	2.31	0
1	9027	2.41	0
1	9712	2.51	0
1	10397	2.61	0
1	11082	2.71	0
1	11767	2.81	0
1	12452	2.91	0
1	13146	3.01	0
1	13831	3.11	0
1	14516	3.21	0
1	15201	3.31	0
1	15886	3.41	0
1	16571	3.51	0
1	17256	3.61	0
1	17941	3.71	0
1	18626	3.81	0
1	19311	3.91	0
1	20005	4.01	0
1	20690	4.11	0
1	21375	4.21	0
1	22060	4.31	0
1	22745	4.41	0
1	23430	4.51	0
1	24115	4.61	0
1	24800	4.71	0
1	25485	4.81	0
1	26170	4.91	0
1	26864	5.01	0
1	27549	5.11	0
1	28234	5.21	0
1	28919	5.31	0
1	29604	5.41	0
1	30289	5.51	0
1	30974	5.61	0
1	31659	5.71	0
1	32344	5.81	0
1	33029	5.91	0
1	33723	6.01	0
1	34408	6.11	0
1	35093	6.21	0
1	35778	6.31	0
1	36463	6.41	0
1	37148	6.51	0
1	37833	6.61	0
1	38518	6.71	0
1	39203	6.81	0
1	39888	6.91	0
1	40582	7.01	0
1	41267	7.11	0
1	41952	7.21	0
1	42637	7.31	0
1	43322	7.41	0
1	44007	7.51	0
1	44692	7.61	0
1	45377	7.71	0
1	46062	7.81	0
1	46747	7.91	0
1	47441	8.01	0
1	48126	8.11	0
1	48811	8.21	0
1	49496	8.31	0
1	50181	8.41	0
1	50866	8.51	0
1	51551	8.61	0
1	52236	8.71	0
1	52921	8.81	0
1	53606	8.91	0
1	54300	9.01	0
1	54985	9.11	0
1	55670	9.21	0
1	56355	9.31	0
1	57040	9.41	0
1	57725	9.51	0
1	58410	9.61	0
1	59095	9.71	0
1	59780	9.81	0
1	60465	9.91	0
1	63472	10.01	0
1	64157	10.11	0
1	64842	10.21	0
1	65527	10.31	0
1	66212	10.41	0
1	66897	10.51	0
1	67582	10.61	0
1	68267	10.71	0
1	68952	10.81	0
1	69637	10.91	0
1	70331	11.01	0
1	71016	11.11	0
1	71701	11.21	0
1	72386	11.31	0
1	73071	11.41	0
1	73756	11.51	0
1	74441	11.61	0
1	75126	11.71	0
1	75811	11.81	0
1	76496	11.91	0
1	77190	12.01	0
1	77875	12.11	0
1	78560	12.21	0
1	79245	12.31	0
1	79930	12.41	0
1	80615	12.51	0
1	81300	12.61	0
1	81985	12.71	0
1	82670	12.81	0
1	83355	12.91	0
1	84049	13.01	0
1	84734	13.11	0
1	85419	13.21	0
1	86104	13.31	0
1	86789	13.41	0
1	87474	13.51	0
1	88159	13.61	0
1	88844	13.71	0
1	89529	13.81	0
1	90214	13.91	0
1	90908	14.01	0
1	91593	14.11	0
1	92278	14.21	0
1	92963	14.31	0
1	93648	14.41	0
1	94333	14.51	0
1	95018	14.61	0
1	95703	14.71	0
1	96388	14.81	0
1	97073	14.91	0
1	97767	15.01	0
1	98452	15.11	0
1	99137	15.21	0
1	99822	15.31	0
1	100507	15.41	0
1	101192	15.51	0
1	101877	15.61	0
1	102562	15.71	0
1	103247	15.81	0
1	103932	15.91	0
1	104626	16.01	0
1	105311	16.11	0
1	105996	16.21	0
1	106681	16.31	0
1	107366	16.41	0
1	108051	16.51	0
1	108736	16.61	0
1	109421	16.71	0
1	110106	16.81	0
1	110791	16.91	0
1	111485	17.01	0
1	112170	17.11	0
1	112855	17.21	0
1	113540	17.31	0
1	114225	17.41	0
1	114910	17.51	0
1	115595	17.61	0
1	116280	17.71	0
1	116965	17.81	0
1	117650	17.91	0
1	118344	18.01	0
1	119029	18.11	0
1	119714	18.21	0
1	120399	18.31	0
1	121084	18.41	0
1	121769	18.51	0
1	122454	18.61	0
1	123139	18.71	0
1	123824	18.81	0
1	124509	18.91	0
1	125203	19.01	0
1	125888	19.11	0
1	126573	19.21	0
1	127258	19.31	0
1	127943	19.41	0
1	128628	19.51	0
1	129313	19.61	0
1	129998	19.71	0
1	130683	19.81	0
1	131368	19.91	0
1	132062	20.01	0
1	132747	20.11	0
1	133432	20.21	0
1	134117	20.31	0
1	134802	20.41	0
1	135487	20.51	0
1	136172	20.61	0
1	136857	20.71	0
1	137542	20.81	0
1	138227	20.91	0
1	138921	21.01	0
1	139606	21.11	0
1	140291	21.21	0
1	140976	21.31	0
1	141661	21.41	0
1	142346	21.51	0
1	143031	21.61	0
1	143716	21.71	0
1	144401	21.81	0
1	145086	21.91	0
1	145780	22.01	0
1	146465	22.11	0
1	147150	22.21	0
1	147835	22.31	0
1	148520	22.41	0
1	149205	22.51	0
1	149890	22.61	0
1	150575	22.71	0
1	151260	22.81	0
1	151945	22.91	0
1	152639	23.01	0
1	153324	23.11	0
1	154009	23.21	0
1	154694	23.31	0
1	155379	23.41	0
1	156064	23.51	0
1	156749	23.61	0
1	157434	23.71	0
1	158119	23.81	0
1	158804	23.91	0
1	159498	24.01	0
1	160183	24.11	0
1	160868	24.21	0
1	161553	24.31	0
1	162238	24.41	0
1	162923	24.51	0
1	163608	24.61	0
1	164293	24.71	0
1	164978	24.81	0
1	165663	24.91	0
1	166357	25.01	0
1	167042	25.11	0
1	167727	25.21	0
1	168412	25.31	0
1	169097	25.41	0
1	169782	25.51	0
1	170467	25.61	0
1	171152	25.71	0
1	171837	25.81	0
1	172522	25.91	0
1	173216	26.01	0
1	173901	26.11	0
1	174586	26.21	0
1	175271	26.31	0
1	175956	26.41	0
1	176641	26.51	0
1	177326	26.61	0
1	178011	26.71	0
1	178696	26.81	0
1	179381	26.91	0
1	180075	27.01	0
1	180760	27.11	0
1	181445	27.21	0
1	182130	27.31	0
1	182815	27.41	0
1	183500	27.51	0
1	184185	27.61	0
1	184870	27.71	0
1	185555	27.81	0
1	186240	27.91	0
1	186934	28.01	0
1	187619	28.11	0
1	188304	28.21	0
1	188989	28.31	0
1	189674	28.41	0
1	190359	28.51	0
1	191044	28.61	0
1	191729	28.71	0
1	192414	28.81	0
1	193099	28.91	0
1	193793	29.01	0
1	194478	29.11	0
1	195163	29.21	0
1	195848	29.31	0
1	196533	29.41	0
1	197218	29.51	0
1	197903	29.61	0
1	198588	29.71	0
1	199273	29.81	0
1	199958	29.91	0
1	200652	30.01	0
1	201337	30.11	0
1	202022	30.21	0
1	202707	30.31	0
1	203392	30.41	0
1	204077	30.51	0
1	204762	30.61	0
1	205447	30.71	0
1	206132	30.81	0
1	206817	30.91	0
1	207511	31.01	0
1	208196	31.11	0
1	208881	31.21	0
1	209566	31.31	0
1	210251	31.41	0
1	210936	31.51	0
1	211621	31.61	0
1	212306	31.71	0
1	212991	31.81	0
1	213676	31.91	0
1	214370	32.01	0
1	215055	32.11	0
1	215740	32.21	0
1	216425	32.31	0
1	217110	32.41	0
1	217795	32.51	0
1	218480	32.61	0
1	219165	32.71	0
1	219850	32.81	0
1	220535	32.91	0
1	221229	33.01	0
1	221914	33.11	0
1	222599	33.21	0
1	223284	33.31	0
1	223969	33.41	0
1	224654	33.51	0
1	225339	33.61	0
1	226024	33.71	0
1	226709	33.81	0
1	227394	33.91	0
1	228088	34.01	0
1	228773	34.11	0
1	229458	34.21	0
1	230143	34.31	0
1	230828	34.41	0
1	231513	34.51	0
1	232198	34.61	0
1	232883	34.71	0
1	233568	34.81	0
1	234253	34.91	0
1	234947	35.01	0
1	235632	35.11	0
1	236317	35.21	0
1	237002	35.31	0
1	237687	35.41	0
1	238372	35.51	0
1	239057	35.61	0
1	239742	35.71	0
1	240427	35.81	0
1	241112	35.91	0
1	241806	36.01	0
1	242491	36.11	0
1	243176	36.21	0
1	243861	36.31	0
1	244546	36.41	0
1	245231	36.51	0
1	245916	36.61	0
1	246601	36.71	0
1	247286	36.81	0
1	247971	36.91	0
1	248665	37.01	0
1	249350	37.11	0
1	250035	37.21	0
1	250720	37.31	0
1	251405	37.41	0
1	252090	37.51	0
1	252775	37.61	0
1	253460	37.71	0
1	254145	37.81	0
1	254830	37.91	0
1	255524	38.01	0
1	256209	38.11	0
1	256894	38.21	0
1	257579	38.31	0
1	258264	38.41	0
1	258949	38.51	0
1	259634	38.61	0
1	260319	38.71	0
1	261004	38.81	0
1	261689	38.91	0
1	262383	39.01	0
1	263068	39.11	0
1	263753	39.21	0
1	264438	39.31	0
1	265123	39.41	0
1	265808	39.51	0
1	266493	39.61	0
1	267178	39.71	0
1	267863	39.81	0
1	268548	39.91	0
1	269242	40.01	0
1	269927	40.11	0
1	270612	40.21	0
1	271297	40.31	0
1	271982	40.41	0
1	272667	40.51	0
1	273352	40.61	0
1	274037	40.71	0
1	274722	40.81	0
1	275407	40.91	0
1	276101	41.01	0
1	276786	41.11	0
1	277471	41.21	0
1	278156	41.31	0
1	278841	41.41	0
1	279526	41.51	0
1	280211	41.61	0
1	280896	41.71	0
1	281581	41.81	0
1	282266	41.91	0
1	282960	42.01	0
1	283645	42.11	0
1	284330	42.21	0
1	285015	42.31	0
1	285700	42.41	0
1	286385	42.51	0
1	287070	42.61	0
1	287755	42.71	0
1	288440	42.81	0
1	289125	42.91	0
1	289819	43.01	0
1	290504	43.11	0
1	291189	43.21	0
1	291874	43.31	0
1	292559	43.41	0
1	293244	43.51	0
1	293929	43.61	0
1	294614	43.71	0
1	295299	43.81	0
1	295984	43.91	0
1	296678	44.01	0
1	297363	44.11	0
1	298048	44.21	0
1	298733	44.31	0
1	299418	44.41	0
1	300103	44.51	0
1	300788	44.61	0
1	301473	44.71	0
1	302158	44.81	0
1	302843	44.91	0
1	303537	45.01	0
1	304222	45.11	0
1	304907	45.21	0
1	305592	45.31	0
1	306277	45.41	0
1	306962	45.51	0
1	307647	45.61	0
1	308332	45.71	0
1	309017	45.81	0
1	309702	45.91	0
1	310396	46.01	0
1	311081	46.11	0
1	311766	46.21	0
1	312451	46.31	0
1	313136	46.41	0
1	313821	46.51	0
1	314506	46.61	0
1	315191	46.71	0
1	315876	46.81	0
1	316561	46.91	0
1	317255	47.01	0
1	317940	47.11	0
1	318625	47.21	0
1	319310	47.31	0
1	319995	47.41	0
1	320680	47.51	0
1	321365	47.61	0
1	322050	47.71	0
1	322735	47.81	0
1	323420	47.91	0
1	324114	48.01	0
1	324799	48.11	0
1	325484	48.21	0
1	326169	48.31	0
1	326854	48.41	0
1	327539	48.51	0
1	328224	48.61	0
1	328909	48.71	0
1	329594	48.81	0
1	330279	48.91	0
1	330973	49.01	0
1	331658	49.11	0
1	332343	49.21	0
1	333028	49.31	0
1	333713	49.41	0
1	334398	49.51	0
1	335083	49.61	0
1	335768	49.71	0
1	336453	49.81	0
1	337138	49.91	0
1	337832	50.01	0
1	338517	50.11	0
1	339202	50.21	0
1	339887	50.31	0
1	340572	50.41	0
1	341257	50.51	0
1	341942	50.61	0
1	342627	50.71	0
1	343312	50.81	0
1	343997	50.91	0
1	344691	51.01	0
1	345376	51.11	0
1	346061	51.21	0
1	346746	51.31	0
1	347431	51.41	0
1	348116	51.51	0
1	348801	51.61	0
1	349486	51.71	0
1	350171	51.81	0
1	350856	51.91	0
1	351550	52.01	0
1	352235	52.11	0
1	352920	52.21	0
1	353605	52.31	0
1	354290	52.41	0
1	354975	52.51	0
1	355660	52.61	0
1	356345	52.71	0
1	357030	52.81	0
1	357715	52.91	0
1	358409	53.01	0
1	359094	53.11	0
1	359779	53.21	0
1	360464	53.31	0
1	361149	53.41	0
1	361834	53.51	0
1	362519	53.61	0
1	363204	53.71	0
1	363889	53.81	0
1	364574	53.91	0
1	365268	54.01	0
1	365953	54.11	0
1	366638	54.21	0
1	367323	54.31	0
1	368008	54.41	0
1	368693	54.51	0
1	369378	54.61	0
1	370063	54.71	0
1	370748	54.81	0
1	371433	54.91	0
1	372127	55.01	0
1	372812	55.11	0
1	373497	55.21	0
1	374182	55.31	0
1	374867	55.41	0
1	375552	55.51	0
1	376237	55.61	0
1	376922	55.71	0
1	377607	55.81	0
1	378292	55.91	0
1	378986	56.01	0
1	379671	56.11	0
1	380356	56.21	0
1	381041	56.31	0
1	381726	56.41	0
1	382411	56.51	0
1	383096	56.61	0
1	383781	56.71	0
1	384466	56.81	0
1	385151	56.91	0
1	385845	57.01	0
1	386530	57.11	0
1	387215	57.21	0
1	387900	57.31	0
1	388585	57.41	0
1	389270	57.51	0
1	389955	57.61	0
1	390640	57.71	0
1	391325	57.81	0
1	392010	57.91	0
1	392704	58.01	0
1	393389	58.11	0
1	394074	58.21	0
1	394759	58.31	0
1	395444	58.41	0
1	396129	58.51	0
1	396814	58.61	0
1	397499	58.71	0
1	398184	58.81	0
1	398869	58.91	0.88953
1	399563	59.01	0.89504
1	400248	59.11	0.905161
1	400933	59.21	0.918761
1	401618	59.31	0.934852
1	402303	59.41	0.952577
1	402988	59.51	0.971205
1	403673	59.61	0.990119
1	404358	59.71	1.0088
1	405043	59.81	1.02684
1	405728	59.91	1.04388
1	406422	60.01	1.05968
1	407107	60.11	1.07403
1	407792	60.21	1.08679
1	408477	60.31	1.09787
1	409162	60.41	1.10723
1	409847	60.51	1.11486
1	410532	60.61	1.12076
1	411217	60.71	1.12499
1	411902	60.81	1.12761
1	412587	60.91	1.12869
1	413281	61.01	1.12832
1	413966	61.11	1.12661
1	414651	61.21	1.12364
1	415336	61.31	1.11954
1	416021	61.41	1.1144
1	416706	61.51	1.10833
1	417391	61.61	1.10144
1	418076	61.71	1.09382
1	418761	61.81	1.08556
1	419446	61.91	1.07675
1	420140	62.01	1.06749
1	420825	62.11	1.05784
1	421510	62.21	1.04788
1	422195	62.31	1.03768
1	422880	62.41	1.02728
1	423565	62.51	1.01676
1	424250	62.61	1.00614
1	424935	62.71	0.995486
1	425620	62.81	0.984854
1	426305	62.91	0.97441
1	426999	63.01	0.964309
1	427684	63.11	0.954671
1	428369	63.21	0.945584
1	429054	63.31	0.937113
1	429739	63.41	0.929299
1	430424	63.51	0.922164
1	431109	63.61	0.915714
1	431794	63.71	0.909943
1	432479	63.81	0.90483
1	433164	63.91	0.900351
1	433858	64.01	0.89647
1	434543	64.11	0.893152
1	435228	64.21	0.890353
1	435913	64.31	0.88803
1	436598	64.41	0.886141
1	437283	64.51	0.884641
1	437968	64.61	0.883486
1	438653	64.71	0.882636
1	439338	64.81	0.882051
1	440023	64.91	0.881694
1	440717	65.01	0.88153
1	441402	65.11	0.881528
1	442087	65.21	0.881659
1	442772	65.31	0.881896
1	443457	65.41	0.882216
1	444142	65.51	0.882598
1	444827	65.61	0.883025
1	445512	65.71	0.88348
1	446197	65.81	0.883951
1	446882	65.91	0.884426
1	447576	66.01	0.884896
1	448261	66.11	0.885354
1	448946	66.21	0.885792
1	449631	66.31	0.886208
1	450316	66.41	0.886597
1	451001	66.51	0.886958
1	451686	66.61	0.887289
1	452371	66.71	0.887589
1	453056	66.81	0.887858
1	453741	66.91	0.888098
1	454435	67.01	0.88831
1	455120	67.11	0.888494
1	455805	67.21	0.888652
1	456490	67.31	0.888786
1	457175	67.41	0.888898
1	457860	67.51	0.88899
1	458545	67.61	0.889064
1	459230	67.71	0.889122
1	459915	67.81	0.889165
1	460600	67.91	0.889196
1	461294	68.01	0.889216
1	461979	68.11	0.889226
1	462664	68.21	0.889229
1	463349	68.31	0.889226
1	464034	68.41	0.889217
1	464719	68.51	0.889204
1	465404	68.61	0.889188
1	466089	68.71	0.88917
1	466774	68.81	0.88915
1	467459	68.91	0.889129
1	468153	69.01	0.889108
1	468838	69.11	0.889087
1	469523	69.21	0.889066
1	470208	69.31	0.889047
1	470893	69.41	0.889028
1	471578	69.51	0.88901
1	472263	69.61	0.888993
1	472948	69.71	0.888978
1	473633	69.81	0.888964
1	474318	69.91	0.888951
1	475012	70.01	0.88894
1	475697	70.11	0.88893
1	476382	70.21	0.888921
1	477067	70.31	0.888914
1	477752	70.41	0.888907
1	478437	70.51	0.888902
1	479122	70.61	0.888898
1	479807	70.71	0.888894
1	480492	70.81	0.888891
1	481177	70.91	0.888889
1	481871	71.01	0.888887
1	482556	71.11	0.888886
1	483241	71.21	0.888886
1	483926	71.31	0.888885
1	484611	71.41	0.888885
1	485296	71.51	0.888886
1	485981	71.61	0.888886
1	486666	71.71	0.888887
1	487351	71.81	0.888888
1	488036	71.91	0.888888
1	488730	72.01	0.888889
1	489415	72.11	0.88889
1	490100	72.21	0.888891
1	490785	72.31	0.888892
1	491470	72.41	0.888893
1	492155	72.51	0.888894
1	492840	72.61	0.888895
1	493525	72.71	0.888896
1	494210	72.81	0.888896
1	494895	72.91	0.888897
1	495589	73.01	0.888897
1	496274	73.11	0.888898
1	496959	73.21	0.888898
1	497644	73.31	0.888899
1	498329	73.41	0.888899
1	499014	73.51	0.8889
1	499699	73.61	0.8889
1	500384	73.71	0.8889
1	501069	73.81	0.8889
1	501754	73.91	0.8889
1	502448	74.01	0.8889
1	503133	74.11	0.888901
1	503818	74.21	0.888901
1	504503	74.31	0.888901
1	505188	74.41	0.888901
1	505873	74.51	0.888901
1	506558	74.61	0.888901
1	507243	74.71	0.888901
1	507928	74.81	0.888901
1	508613	74.91	0.888901
1	509307	75.01	0.888901
1	509992	75.11	0.8889
1	510677	75.21	0.8889
1	511362	75.31	0.8889
1	512047	75.41	0.8889
1	512732	75.51	0.8889
1	513417	75.61	0.8889
1	514102	75.71	0.8889
1	514787	75.81	0.8889
1	515472	75.91	0.8889
1	516166	76.01	0.8889
1	516851	76.11	0.8889
1	517536	76.21	0.8889
1	518221	76.31	0.8889
1	518906	76.41	0.8889
1	519591	76.51	0.8889
1	520276	76.61	0.8889
1	520961	76.71	0.8889
1	521646	76.81	0.8889
1	522331	76.91	0.8889
1	523025	77.01	0.8889
1	523710	77.11	0.8889
1	524395	77.21	0.8889
1	525080	77.31	0.8889
1	525765	77.41	0.8889
1	526450	77.51	0.8889
1	527135	77.61	0.8889
1	527820	77.71	0.8889
1	528505	77.81	0.8889
1	529190	77.91	0.8889
1	529884	78.01	0.8889
1	530569	78.11	0.8889
1	531254	78.21	0.8889
1	531939	78.31	0.8889
1	532624	78.41	0.8889
1	533309	78.51	0.8889
1	533994	78.61	0.8889
1	534679	78.71	0.8889
1	535364	78.81	0.8889
1	536049	78.91	0.8889
1	536743	79.01	0.8889
1	537428	79.11	0.8889
1	538113	79.21	0.8889
1	538798	79.31	0.8889
1	539483	79.41	0.8889
1	540168	79.51	0.8889
1	540853	79.61	0.8889
1	541538	79.71	0.8889
1	542223	79.81	0.8889
1	542908	79.91	0.8889
1	543602	80.01	0.8889
1	544287	80.11	0.8889
1	544972	80.21	0.8889
1	545657	80.31	0.8889
1	546342	80.41	0.8889
1	547027	80.51	0.8889
1	547712	80.61	0.8889
1	548397	80.71	0.8889
1	549082	80.81	0.8889
1	549767	80.91	0.8889
1	550461	81.01	0.8889
1	551146	81.11	0.8889
1	551831	81.21	0.8889
1	552516	81.31	0.8889
1	553201	81.41	0.8889
1	553886	81.51	0.8889
1	554571	81.61	0.8889
1	555256	81.71	0.8889
1	555941	81.81	0.8889
1	556626	81.91	0.8889
1	557320	82.01	0.8889
1	558005	82.11	0.8889
1	558690	82.21	0.8889
1	559375	82.31	0.8889
1	560060	82.41	0.8889
1	560745	82.51	0.8889
1	561430	82.61	0.8889
1	562115	82.71	0.8889
1	562800	82.81	0.8889
1	563485	82.91	0.8889
1	564179	83.01	0.8889
1	564864	83.11	0.8889
1	565549	83.21	0.8889
1	566234	83.31	0.8889
1	566919	83.41	0.8889
1	567604	83.51	0.8889
1	568289	83.61	0.8889
1	568974	83.71	0.8889
1	569659	83.81	0.8889
1	570344	83.91	0.8889
1	571038	84.01	0.8889
1	571723	84.11	0.8889
1	572408	84.21	0.8889
1	573093	84.31	0.8889
1	573778	84.41	0.8889
1	574463	84.51	0.8889
1	575148	84.61	0.8889
1	575833	84.71	0.8889
1	576518	84.81	0.8889
1	577203	84.91	0.8889
1	577897	85.01	0.8889
1	578582	85.11	0.8889
1	579267	85.21	0.8889
1	579952	85.31	0.8889
1	580637	85.41	0.8889
1	581322	85.51	0.8889
1	582007	85.61	0.8889
1	582692	85.71	0.8889
1	583377	85.81	0.8889
1	584062	85.91	0.8889
1	584756	86.01	0.8889
1	585441	86.11	0.8889
1	586126	86.21	0.8889
1	586811	86.31	0.8889
1	587496	86.41	0.8889
1	588181	86.51	0.8889
1	588866	86.61	0.8889
1	589551	86.71	0.8889
1	590236	86.81	0.8889
1	590921	86.91	0.8889
1	591615	87.01	0.8889
1	592300	87.11	0.8889
1	592985	87.21	0.8889
1	593670	87.31	0.8889
1	594355	87.41	0.8889
1	595040	87.51	0.8889
1	595725	87.61	0.8889
1	596410	87.71	0.8889
1	597095	87.81	0.8889
1	597780	87.91	0.8889
1	598474	88.01	0.8889
1	599159	88.11	0.8889
1	599844	88.21	0.8889
1	600529	88.31	0.8889
1	601214	88.41	0.8889
1	601899	88.51	0.8889
1	602584	88.61	0.8889
1	603269	88.71	0.8889
1	603954	88.81	0.8889
1	604639	88.91	0.8889
1	605333	89.01	0.8889
1	606018	89.11	0.8889
1	606703	89.21	0.8889
1	607388	89.31	0.8889
1	608073	89.41	0.8889
1	608758	89.51	0.8889
1	609443	89.61	0.8889
1	610128	89.71	0.8889
1	610813	89.81	0.8889
1	611498	89.91	0.8889
1	612192	90.01	0.8889
1	612877	90.11	0.8889
1	613562	90.21	0.8889
1	614247	90.31	0.8889
1	614932	90.41	0.8889
1	615617	90.51	0.8889
1	616302	90.61	0.8889
1	616987	90.71	0.8889
1	617672	90.81	0.8889
1	618357	90.91	0.8889
1	619051	91.01	0.8889
1	619736	91.11	0.8889
1	620421	91.21	0.8889
1	621106	91.31	0.8889
1	621791	91.41	0.8889
1	622476	91.51	0.8889
1	623161	91.61	0.8889
1	623846	91.71	0.8889
1	624531	91.81	0.8889
1	625216	91.91	0.8889
1	625910	92.01	0.8889
1	626595	92.11	0.8889
1	627280	92.21	0.8889
1	627965	92.31	0.8889
1	628650	92.41	0.8889
1	629335	92.51	0.8889
1	630020	92.61	0.8889
1	630705	92.71	0.8889
1	631390	92.81	0.8889
1	632075	92.91	0.8889
1	632769	93.01	0.8889
1	633454	93.11	0.8889
1	634139	93.21	0.8889
1	634824	93.31	0.8889
1	635509	93.41	0.8889
1	636194	93.51	0.8889
1	636879	93.61	0.8889
1	637564	93.71	0.8889
1	638249	93.81	0.8889
1	638934	93.91	0.8889
1	639628	94.01	0.8889
1	640313	94.11	0.8889
1	640998	94.21	0.8889
1	641683	94.31	0.8889
1	642368	94.41	0.8889
1	643053	94.51	0.8889
1	643738	94.61	0.8889
1	644423	94.71	0.8889
1	645108	94.81	0.8889
1	645793	94.91	0.8889
1	646487	95.01	0.8889
1	647172	95.11	0.8889
1	647857	95.21	0.8889
1	648542	95.31	0.8889
1	649227	95.41	0.8889
1	649912	95.51	0.8889
1	650597	95.61	0.8889
1	651282	95.71	0.8889
1	651967	95.81	0.8889
1	652652	95.91	0.8889
1	653346	96.01	0.8889
1	654031	96.11	0.8889
1	654716	96.21	0.8889
1	655401	96.31	0.8889
1	656086	96.41	0.8889
1	656771	96.51	0.8889
1	657456	96.61	0.8889
1	658141	96.71	0.8889
1	658826	96.81	0.8889
1	659511	96.91	0.8889
1	660205	97.01	0.8889
1	660890	97.11	0.8889
1	661575	97.21	0.8889
1	662260	97.31	0.8889
1	662945	97.41	0.8889
1	663630	97.51	0.8889
1	664315	97.61	0.8889
1	665000	97.71	0.8889
1	665685	97.81	0.8889
1	666370	97.91	0.8889
1	667064	98.01	0.8889
1	667749	98.11	0.8889
1	668434	98.21	0.8889
1	669119	98.31	0.8889
1	669804	98.41	0.8889
1	670489	98.51	0.8889
1	671174	98.61	0.8889
1	671859	98.71	0.8889
1	672544	98.81	0.8889
1	673229	98.91	0.8889
1	673923	99.01	0.8889
1	674608	99.11	0.8889
1	675293	99.21	0.8889
1	675978	99.31	0.8889
1	676663	99.41	0.8889
1	677348	99.51	0.8889
1	678033	99.61	0.8889
1	678718	99.71	0.8889
1	679403	99.81	0.8889
1	680088	99.91	0.8889
2	113	1.11	0
2	798	1.21	0
2	1483	1.31	0
2	2168	1.41	0
2	2853	1.51	0
2	3538	1.61	0
2	4223	1.71	0
2	4908	1.81	0
2	5593	1.91	0
2	6287	2.01	0
2	6972	2.11	0
2	7657	2.21	0
2	8342	2.31	0
2	9027	2.41	0
2	9712	2.51	0
2	10397	2.61	0
2	11082	2.71	0
2	11767	2.81	0
2	12452	2.91	0
2	13146	3.01	0
2	13831	3.11	0
2	14516	3.21	0
2	15201	3.31	0
2	15886	3.41	0
2	16571	3.51	0
2	17256	3.61	0
2	17941	3.71	0
2	18626	3.81	0
2	19311	3.91	0
2	20005	4.01	0
2	20690	4.11	0
2	21375	4.21	0
2	22060	4.31	0
2	22745	4.41	0
2	23430	4.51	0
2	24115	4.61	0
2	24800	4.71	0
2	25485	4.81	0
2	26170	4.91	0
2	26864	5.01	0
2	27549	5.11	0
2	28234	5.21	0
2	28919	5.31	0
2	29604	5.41	0
2	30289	5.51	0
2	30974	5.61	0
2	31659	5.71	0
2	32344	5.81	0
2	33029	5.91	0
2	33723	6.01	0
2	34408	6.11	0
2	35093	6.21	0
2	35778	6.31	0
2	36463	6.41	0
2	37148	6.51	0
2	37833	6.61	0
2	38518	6.71	0
2	39203	6.81	0
2	39888	6.91	0
2	40582	7.01	0
2	41267	7.11	0
2	41952	7.21	0
2	42637	7.31	0
2	43322	7.41	0
2	44007	7.51	0
2	44692	7.61	0
2	45377	7.71	0
2	46062	7.81	0
2	46747	7.91	0
2	47441	8.01	0
2	48126	8.11	0
2	48811	8.21	0
2	49496	8.31	0
2	50181	8.41	0
2	50866	8.51	0
2	51551	8.61	0
2	52236	8.71	0
2	52921	8.81	0
2	53606	8.91	0
2	54300	9.01	0
2	54985	9.11	0
2	55670	9.21	0
2	56355	9.31	0
2	57040	9.41	0
2	57725	9.51	0
2	58410	9.61	0
2	59095	9.71	0
2	59780	9.81	0
2	60465	9.91	0
2	63472	10.01	0
2	64157	10.11	0
2	64842	10.21	0
2	65527	10.31	0
2	66212	10.41	0
2	66897	10.51	0
2	67582	10.61	0
2	68267	10.71	0
2	68952	10.81	0
2	69637	10.91	0
2	70331	11.01	0
2	71016	11.11	0
2	71701	11.21	0
2	72386	11.31	0
2	73071	11.41	0
2	73756	11.51	0
2	74441	11.61	0
2	75126	11.71	0
2	75811	11.81	0
2	76496	11.91	0
2	77190	12.01	0
2	77875	12.11	0
2	78560	12.21	0
2	79245	12.31	0
2	79930	12.41	0
2	80615	12.51	0
2	81300	12.61	0
2	81985	12.71	0
2	82670	12.81	0
2	83355	12.91	0
2	84049	13.01	0
2	84734	13.11	0
2	85419	13.21	0
2	86104	13.31	0
2	86789	13.41	0
2	87474	13.51	0
2	88159	13.61	0
2	88844	13.71	0
2	89529	13.81	0
2	90214	13.91	0
2	90908	14.01	0
2	91593	14.11	0
2	92278	14.21	0
2	92963	14.31	0
2	93648	14.41	0
2	94333	14.51	0
2	95018	14.61	0
2	95703	14.71	0
2	96388	14.81	0
2	97073	14.91	0
2	97767	15.01	0
2	98452	15.11	0
2	99137	15.21	0
2	99822	15.31	0
2	100507	15.41	0
2	101192	15.51	0
2	101877	15.61	0
2	102562	15.71	0
2	103247	15.81	0
2	103932	15.91	0
2	104626	16.01	0
2	105311	16.11	0
2	105996	16.21	0
2	106681	16.31	0
2	107366	16.41	0
2	108051	16.51	0
2	108736	16.61	0
2	109421	16.71	0
2	110106	16.81	0
2	110791	16.91	0
2	111485	17.01	0
2	112170	17.11	0
2	112855	17.21	0
2	113540	17.31	0
2	114225	17.41	0
2	114910	17.51	0
2	115595	17.61	0
2	116280	17.71	0
2	116965	17.81	0
2	117650	17.91	0
2	118344	18.01	0
2	119029	18.11	0
2	119714	18.21	0
2	120399	18.31	0
2	121084	18.41	0
2	121769	18.51	0
2	122454	18.61	0
2	123139	18.71	0
2	123824	18.81	0
2	124509	18.91	0
2	125203	19.01	0
2	125888	19.11	0
2	126573	19.21	0
2	127258	19.31	0
2	127943	19.41	0
2	128628	19.51	0
2	129313	19.61	0
2	129998	19.71	0
2	130683	19.81	0
2	131368	19.91	0
2	132062	20.01	0
2	132747	20.11	0
2	133432	20.21	0
2	134117	20.31	0
2	134802	20.41	0
2	135487	20.51	0
2	136172	20.61	0
2	136857	20.71	0
2	137542	20.81	0
2	138227	20.91	0
2	138921	21.01	0
2	139606	21.11	0
2	140291	21.21	0
2	140976	21.31	0
2	141661	21.41	0
2	142346	21.51	0
2	143031	21.61	0
2	143716	21.71	0
2	144401	21.81	0
2	145086	21.91	0
2	145780	22.01	0
2	146465	22.11	0
2	147150	22.21	0
2	147835	22.31	0
2	148520	22.41	0
2	149205	22.51	0
2	149890	22.61	0
2	150575	22.71	0
2	151260	22.81	0
2	151945	22.91	0
2	152639	23.01	0
2	153324	23.11	0
2	154009	23.21	0
2	154694	23.31	0
2	155379	23.41	0
2	156064	23.51	0
2	156749	23.61	0
2	157434	23.71	0
2	158119	23.81	0
2	158804	23.91	0
2	159498	24.01	0
2	160183	24.11	0
2	160868	24.21	0
2	161553	24.31	0
2	162238	24.41	0
2	162923	24.51	0
2	163608	24.61	0
2	164293	24.71	0
2	164978	24.81	0
2	165663	24.91	0
2	166357	25.01	0
2	167042	25.11	0
2	167727	25.21	0
2	168412	25.31	0
2	169097	25.41	0
2	169782	25.51	0
2	170467	25.61	0
2	171152	25.71	0
2	171837	25.81	0
2	172522	25.91	0
2	173216	26.01	0
2	173901	26.11	0
2	174586	26.21	0
2	175271	26.31	0
2	175956	26.41	0
2	176641	26.51	0
2	177326	26.61	0
2	178011	26.71	0
2	178696	26.81	0
2	179381	26.91	0
2	180075	27.01	0
2	180760	27.11	0
2	181445	27.21	0
2	182130	27.31	0
2	182815	27.41	0
2	183500	27.51	0
2	184185	27.61	0
2	184870	27.71	0
2	185555	27.81	0
2	186240	27.91	0
2	186934	28.01	0
2	187619	28.11	0
2	188304	28.21	0
2	188989	28.31	0
2	189674	28.41	0
2	190359	28.51	0
2	191044	28.61	0
2	191729	28.71	0
2	192414	28.81	0
2	193099	28.91	0
2	193793	29.01	0
2	194478	29.11	0
2	195163	29.21	0
2	195848	29.31	0
2	196533	29.41	0
2	197218	29.51	0
2	197903	29.61	0
2	198588	29.71	0
2	199273	29.81	0
2	199958	29.91	0
2	200652	30.01	0
2	201337	30.11	0
2	202022	30.21	0
2	202707	30.31	0
2	203392	30.41	0
2	204077	30.51	0
2	204762	30.61	0
2	205447	30.71	0
2	206132	30.81	0
2	206817	30.91	0
2	207511	31.01	0
2	208196	31.11	0
2	208881	31.21	0
2	209566	31.31	0
2	210251	31.41	0
2	210936	31.51	0
2	211621	31.61	0
2	212306	31.71	0
2	212991	31.81	0
2	213676	31.91	0
2	214370	32.01	0
2	215055	32.11	0
2	215740	32.21	0
2	216425	32.31	0
2	217110	32.41	0
2	217795	32.51	0
2	218480	32.61	0
2	219165	32.71	0
2	219850	32.81	0
2	220535	32.91	0
2	221229	33.01	0
2	221914	33.11	0
2	222599	33.21	0
2	223284	33.31	0
2	223969	33.41	0
2	224654	33.51	0
2	225339	33.61	0
2	226024	33.71	0
2	226709	33.81	0
2	227394	33.91	0
2	228088	34.01	0
2	228773	34.11	0
2	229458	34.21	0
2	230143	34.31	0
2	230828	34.41	0
2	231513	34.51	0
2	232198	34.61	0
2	232883	34.71	0
2	233568	34.81	0
2	234253	34.91	0
2	234947	35.01	0
2	235632	35.11	0
2	236317	35.21	0
2	237002	35.31	0
2	237687	35.41	0
2	238372	35.51	0
2	239057	35.61	0
2	239742	35.71	0
2	240427	35.81	0
2	241112	35.91	0
2	241806	36.01	0
2	242491	36.11	0
2	243176	36.21	0
2	243861	36.31	0
2	244546	36.41	0
2	245231	36.51	0
2	245916	36.61	0
2	246601	36.71	0
2	247286	36.81	0
2	247971	36.91	0
2	248665	37.01	0
2	249350	37.11	0
2	250035	37.21	0
2	250720	37.31	0
2	251405	37.41	0
2	252090	37.51	0
2	252775	37.61	0
2	253460	37.71	0
2	254145	37.81	0
2	254830	37.91	0
2	255524	38.01	0
2	256209	38.11	0
2	256894	38.21	0
2	257579	38.31	0
2	258264	38.41	0
2	258949	38.51	0
2	259634	38.61	0
2	260319	38.71	0
2	261004	38.81	0
2	261689	38.91	0
2	262383	39.01	0
2	263068	39.11	0
2	263753	39.21	0
2	264438	39.31	0
2	265123	39.41	0
2	265808	39.51	0
2	266493	39.61	0
2	267178	39.71	0
2	267863	39.81	0
2	268548	39.91	0
2	269242	40.01	0
2	269927	40.11	0
2	270612	40.21	0
2	271297	40.31	0
2	271982	40.41	0
2	272667	40.51	0
2	273352	40.61	0
2	274037	40.71	0
2	274722	40.81	0
2	275407	40.91	0
2	276101	41.01	0
2	276786	41.11	0
2	277471	41.21	0
2	278156	41.31	0
2	278841	41.41	0
2	279526	41.51	0
2	280211	41.61	0
2	280896	41.71	0
2	281581	41.81	0
2	282266	41.91	0
2	282960	42.01	0
2	283645	42.11	0
2	284330	42.21	0
2	285015	42.31	0
2	285700	42.41	0
2	286385	42.51	0
2	287070	42.61	0
2	287755	42.71	0
2	288440	42.81	0
2	289125	42.91	0
2	289819	43.01	0
2	290504	43.11	0
2	291189	43.21	0
2	291874	43.31	0
2	292559	43.41	0
2	293244	43.51	0
2	293929	43.61	0
2	294614	43.71	0
2	295299	43.81	0
2	295984	43.91	0
2	296678	44.01	0
2	297363	44.11	0
2	298048	44.21	0
2	298733	44.31	0
2	299418	44.41	0
2	300103	44.51	0
2	300788	44.61	0
2	301473	44.71	0
2	302158	44.81	0
2	302843	44.91	0
2	303537	45.01	0
2	304222	45.11	0
2	304907	45.21	0
2	305592	45.31	0
2	306277	45.41	0
2	306962	45.51	0
2	307647	45.61	0
2	308332	45.71	0
2	309017	45.81	0
2	309702	45.91	0
2	310396	46.01	0
2	311081	46.11	0
2	311766	46.21	0
2	312451	46.31	0
2	313136	46.41	0
2	313821	46.51	0
2	314506	46.61	0
2	315191	46.71	0
2	315876	46.81	0
2	316561	46.91	0
2	317255	47.01	0
2	317940	47.11	0
2	318625	47.21	0
2	319310	47.31	0
2	319995	47.41	0
2	320680	47.51	0
2	321365	47.61	0
2	322050	47.71	0
2	322735	47.81	0
2	323420	47.91	0
2	324114	48.01	0
2	324799	48.11	0
2	325484	48.21	0
2	326169	48.31	0
2	326854	48.41	0
2	327539	48.51	0
2	328224	48.61	0
2	328909	48.71	0
2	329594	48.81	0
2	330279	48.91	0
2	330973	49.01	0
2	331658	49.11	0
2	332343	49.21	0
2	333028	49.31	0
2	333713	49.41	0
2	334398	49.51	0
2	335083	49.61	0
2	335768	49.71	0
2	336453	49.81	0
2	337138	49.91	0
2	337832	50.01	0
2	338517	50.11	0
2	339202	50.21	0
2	339887	50.31	0
2	340572	50.41	0
2	341257	50.51	0
2	341942	50.61	0
2	342627	50.71	0
2	343312	50.81	0
2	343997	50.91	0
2	344691	51.01	0
2	345376	51.11	0
2	346061	51.21	0
2	346746	51.31	0
2	347431	51.41	0
2	348116	51.51	0
2	348801	51.61	0
2	349486	51.71	0
2	350171	51.81	0
2	350856	51.91	0
2	351550	52.01	0
2	352235	52.11	0
2	352920	52.21	0
2	353605	52.31	0
2	354290	52.41	0
2	354975	52.51	0
2	355660	52.61	0
2	356345	52.71	0
2	357030	52.81	0
2	357715	52.91	0
2	358409	53.01	0
2	359094	53.11	0
2	359779	53.21	0
2	360464	53.31	0
2	361149	53.41	0
2	361834	53.51	0
2	362519	53.61	0
2	363204	53.71	0
2	363889	53.81	0
2	364574	53.91	0
2	365268	54.01	0
2	365953	54.11	0
2	366638	54.21	0
2	367323	54.31	0
2	368008	54.41	0
2	368693	54.51	0
2	369378	54.61	0
2	370063	54.71	0
2	370748	54.81	0
2	371433	54.91	0
2	372127	55.01	0
2	372812	55.11	0
2	373497	55.21	0
2	374182	55.31	0
2	374867	55.41	0
2	375552	55.51	0
2	376237	55.61	0
2	376922	55.71	0
2	377607	55.81	0
2	378292	55.91	0
2	378986	56.01	0
2	379671	56.11	0
2	380356	56.21	0
2	381041	56.31	0
2	381726	56.41	0
2	382411	56.51	0
2	383096	56.61	0
2	383781	56.71	0
2	384466	56.81	0
2	385151	56.91	0
2	385845	57.01	0
2	386530	57.11	0
2	387215	57.21	0
2	387900	57.31	0
2	388585	57.41	0
2	389270	57.51	0
2	389955	57.61	0
2	390640	57.71	0
2	391325	57.81	0
2	392010	57.91	0
2	392704	58.01	0
2	393389	58.11	0
2	394074	58.21	0
2	394759	58.31	0
2	395444	58.41	0
2	396129	58.51	0
2	396814	58.61	0
2	397499	58.71	0
2	398184	58.81	0
2	398869	58.91	0
2	399563	59.01	0
2	400248	59.11	0
2	400933	59.21	0
2	401618	59.31	0
2	402303	59.41	0
2	402988	59.51	0
2	403673	59.61	0
2	404358	59.71	0
2	405043	59.81	0
2	405728	59.91	0
2	406422	60.01	0
2	407107	60.11	0
2	407792	60.21	0
2	408477	60.31	0
2	409162	60.41	0
2	409847	60.51	0
2	410532	60.61	0
2	411217	60.71	0
2	411902	60.81	0
2	412587	60.91	0
2	413281	61.01	0
2	413966	61.11	0
2	414651	61.21	0
2	415336	61.31	0
2	416021	61.41	0
2	416706	61.51	0
2	417391	61.61	0
2	418076	61.71	0
2	418761	61.81	0
2	419446	61.91	0
2	420140	62.01	0
2	420825	62.11	0
2	421510	62.21	0
2	422195	62.31	0
2	422880	62.41	0
2	423565	62.51	0
2	424250	62.61	0
2	424935	62.71	0
2	425620	62.81	0
2	426305	62.91	0
2	426999	63.01	0
2	427684	63.11	0
2	428369	63.21	0
2	429054	63.31	0
2	429739	63.41	0
2	430424	63.51	0
2	431109	63.61	0
2	431794	63.71	0
2	432479	63.81	0
2	433164	63.91	0
2	433858	64.01	0
2	434543	64.11	0
2	435228	64.21	0
2	435913	64.31	0
2	436598	64.41	0
2	437283	64.51	0
2	437968	64.61	0
2	438653	64.71	0
2	439338	64.81	0
2	440023	64.91	0
2	440717	65.01	0
2	441402	65.11	0
2	442087	65.21	0
2	442772	65.31	0
2	443457	65.41	0
2	444142	65.51	0
2	444827	65.61	0
2	445512	65.71	0
2	446197	65.81	0
2	446882	65.91	0
2	447576	66.01	0
2	448261	66.11	0
2	448946	66.21	0
2	449631	66.31	0
2	450316	66.41	0
2	451001	66.51	0
2	451686	66.61	0
2	452371	66.71	0
2	453056	66.81	0
2	453741	66.91	0
2	454435	67.01	0
2	455120	67.11	0
2	455805	67.21	0
2	456490	67.31	0
2	457175	67.41	0
2	457860	67.51	0
2	458545	67.61	0
2	459230	67.71	0
2	459915	67.81	0
2	460600	67.91	0
2	461294	68.01	0
2	461979	68.11	0
2	462664	68.21	0
2	463349	68.31	0
2	464034	68.41	0
2	464719	68.51	0
2	465404	68.61	0
2	466089	68.71	0
2	466774	68.81	0
2	467459	68.91	0
2	468153	69.01	0
2	468838	69.11	0
2	469523	69.21	0
2	470208	69.31	0
2	470893	69.41	0
2	471578	69.51	0
2	472263	69.61	0
2	472948	69.71	0
2	473633	69.81	0
2	474318	69.91	0
2	475012	70.01	0
2	475697	70.11	0
2	476382	70.21	0
2	477067	70.31	0
2	477752	70.41	0
2	478437	70.51	0
2	479122	70.61	0
2	479807	70.71	0
2	480492	70.81	0
2	481177	70.91	0
2	481871	71.01	0
2	482556	71.11	0
2	483241	71.21	0
2	483926	71.31	0
2	484611	71.41	0
2	485296	71.51	0
2	485981	71.61	0
2	486666	71.71	0
2	487351	71.81	0
2	488036	71.91	0
2	488730	72.01	0
2	489415	72.11	0
2	490100	72.21	0
2	490785	72.31	0
2	491470	72.41	0
2	492155	72.51	0
2	492840	72.61	0
2	493525	72.71	0
2	494210	72.81	0
2	494895	72.91	0
2	495589	73.01	0
2	496274	73.11	0
2	496959	73.21	0
2	497644	73.31	0
2	498329	73.41	0
2	499014	73.51	0
2	499699	73.61	0
2	500384	73.71	0
2	501069	73.81	0
2	501754	73.91	0
2	502448	74.01	0
2	503133	74.11	0
2	503818	74.21	0
2	504503	74.31	0
2	505188	74.41	0
2	505873	74.51	0
2	506558	74.61	0
2	507243	74.71	0
2	507928	74.81	0
2	508613	74.91	0
2	509307	75.01	0
2	509992	75.11	0
2	510677	75.21	0
2	511362	75.31	0
2	512047	75.41	0
2	512732	75.51	0
2	513417	75.61	0
2	514102	75.71	0
2	514787	75.81	0
2	515472	75.91	0
2	516166	76.01	0
2	516851	76.11	0
2	517536	76.21	0
2	518221	76.31	0
2	518906	76.41	0
2	519591	76.51	0
2	520276	76.61	0
2	520961	76.71	0
2	521646	76.81	0
2	522331	76.91	0
2	523025	77.01	0
2	523710	77.11	0
2	524395	77.21	0
2	525080	77.31	0
2	525765	77.41	0
2	526450	77.51	0
2	527135	77.61	0
2	527820	77.71	0
2	528505	77.81	0
2	529190	77.91	0
2	529884	78.01	0
2	530569	78.11	0
2	531254	78.21	0
2	531939	78.31	0
2	532624	78.41	0
2	533309	78.51	0
2	533994	78.61	0
2	534679	78.71	0
2	535364	78.81	0
2	536049	78.91	0
2	536743	79.01	0
2	537428	79.11	0
2	538113	79.21	0
2	538798	79.31	0
2	539483	79.41	0
2	540168	79.51	0
2	540853	79.61	0
2	541538	79.71	0
2	542223	79.81	0
2	542908	79.91	0
2	543602	80.01	0
2	544287	80.11	0
2	544972	80.21	0
2	545657	80.31	0
2	546342	80.41	0
2	547027	80.51	0
2	547712	80.61	0
2	548397	80.71	0
2	549082	80.81	0
2	549767	80.91	0
2	550461	81.01	0
2	551146	81.11	0
2	551831	81.21	0
2	552516	81.31	0
2	553201	81.41	0
2	553886	81.51	0
2	554571	81.61	0
2	555256	81.71	0
2	555941	81.81	0
2	556626	81.91	0
2	557320	82.01	0
2	558005	82.11	0
2	558690	82.21	0
2	559375	82.31	0
2	560060	82.41	0
2	560745	82.51	0
2	561430	82.61	0
2	562115	82.71	0
2	562800	82.81	0
2	563485	82.91	0
2	564179	83.01	0
2	564864	83.11	0
2	565549	83.21	0
2	566234	83.31	0
2	566919	83.41	0
2	567604	83.51	0
2	568289	83.61	0
2	568974	83.71	0
2	569659	83.81	0
2	570344	83.91	0
2	571038	84.01	0
2	571723	84.11	0
2	572408	84.21	0
2	573093	84.31	0
2	573778	84.41	0
2	574463	84.51	0
2	575148	84.61	0
2	575833	84.71	0
2	576518	84.81	0
2	577203	84.91	0
2	577897	85.01	0
2	578582	85.11	0
2	579267	85.21	0
2	579952	85.31	0
2	580637	85.41	0
2	581322	85.51	0
2	582007	85.61	0
2	582692	85.71	0
2	583377	85.81	0
2	584062	85.91	0
2	584756	86.01	0
2	585441	86.11	0
2	586126	86.21	0
2	586811	86.31	0
2	587496	86.41	0
2	588181	86.51	0
2	588866	86.61	0
2	589551	86.71	0
2	590236	86.81	0
2	590921	86.91	0
2	591615	87.01	0
2	592300	87.11	0
2	592985	87.21	0
2	593670	87.31	0
2	594355	87.41	0
2	595040	87.51	0
2	595725	87.61	0
2	596410	87.71	0
2	597095	87.81	0
2	597780	87.91	0
2	598474	88.01	0
2	599159	88.11	0
2	599844	88.21	0
2	600529	88.31	0
2	601214	88.41	0
2	601899	88.51	0
2	602584	88.61	0
2	603269	88.71	0
2	603954	88.81	0
2	604639	88.91	0
2	605333	89.01	0
2	606018	89.11	0
2	606703	89.21	0
2	607388	89.31	0
2	608073	89.41	0
2	608758	89.51	0
2	609443	89.61	0
2	610128	89.71	0
2	610813	89.81	0
2	611498	89.91	0
2	612192	90.01	0
2	612877	90.11	0
2	613562	90.21	0
2	614247	90.31	0
2	614932	90.41	0
2	615617	90.51	0
2	616302	90.61	0
2	616987	90.71	0
2	617672	90.81	0
2	618357	90.91	0
2	619051	91.01	0
2	619736	91.11	0
2	620421	91.21	0
2	621106	91.31	0
2	621791	91.41	0
2	622476	91.51	0
2	623161	91.61	0
2	623846	91.71	0
2	624531	91.81	0
2	625216	91.91	0
2	625910	92.01	0
2	626595	92.11	0
2	627280	92.21	0
2	627965	92.31	0
2	628650	92.41	0
2	629335	92.51	0
2	630020	92.61	0
2	630705	92.71	0
2	631390	92.81	0
2	632075	92.91	0
2	632769	93.01	0
2	633454	93.11	0
2	634139	93.21	0
2	634824	93.31	0
2	635509	93.41	0
2	636194	93.51	0
2	636879	93.61	0
2	637564	93.71	0
2	638249	93.81	0
2	638934	93.91	0
2	639628	94.01	0
2	640313	94.11	0
2	640998	94.21	0
2	641683	94.31	0
2	642368	94.41	0
2	643053	94.51	0
2	643738	94.61	0
2	644423	94.71	0
2	645108	94.81	0
2	645793	94.91	0
2	646487	95.01	0
2	647172	95.11	0
2	647857	95.21	0
2	648542	95.31	0
2	649227	95.41	0
2	649912	95.51	0
2	650597	95.61	0
2	651282	95.71	0
2	651967	95.81	0
2	652652	95.91	0
2	653346	96.01	0
2	654031	96.11	0
2	654716	96.21	0
2	655401	96.31	0
2	656086	96.41	0
2	656771	96.51	0
2	657456	96.61	0
2	658141	96.71	0
2	658826	96.81	0
2	659511	96.91	0
2	660205	97.01	0
2	660890	97.11	0
2	661575	97.21	0
2	662260	97.31	0
2	662945	97.41	0
2	663630	97.51	0
2	664315	97.61	0
2	665000	97.71	0
2	665685	97.81	0
2	666370	97.91	0
2	667064	98.01	0
2	667749	98.11	0
2	668434	98.21	0
2	669119	98.31	0
2	669804	98.41	0
2	670489	98.51	0
2	671174	98.61	0
2	671859	98.71	0
2	672544	98.81	0
2	673229	98.91	0
2	673923	99.01	0
2	674608	99.11	0
2	675293	99.21	0
2	675978	99.31	0
2	676663	99.41	0
2	677348	99.51	0
2	678033	99.61	0
2	678718	99.71	0
2	679403	99.81	0
2	680088	99.91	0
3	113	1.11	0.000179096
3	798	1.21	0.000340852
3	1483	1.31	0.000467435
3	2168	1.41	0.000562893
3	2853	1.51	0.000631106
3	3538	1.61	0.000675745
3	4223	1.71	0.000700245
3	4908	1.81	0.000707784
3	5593	1.91	0.000701273
3	6287	2.01	0.000683354
3	6972	2.11	0.000656398
3	7657	2.21	0.000622512
3	8342	2.31	0.000583548
3	9027	2.41	0.000541117
3	9712	2.51	0.000496604
3	10397	2.61	0.000451181
3	11082	2.71	0.000405825
3	11767	2.81	0.00036134
3	12452	2.91	0.000318365
3	13146	3.01	0.0002774
3	13831	3.11	0.00023882
3	14516	3.21	0.000202887
3	15201	3.31	0.00016977
3	15886	3.41	0.000139558
3	16571	3.51	0.000112271
3	17256	3.61	8.78717e-05
3	17941	3.71	6.628e-05
3	18626	3.81	4.73785e-05
3	19311	3.91	3.1023e-05
3	20005	4.01	1.70493e-05
3	20690	4.11	5.28023e-06
3	21375	4.21	-4.46922e-06
3	22060	4.31	-1.2387e-05
3	22745	4.41	-1.86602e-05
3	23430	4.51	-2.34717e-05
3	24115	4.61	-2.69978e-05
3	24800	4.71	-2.94062e-05
3	25485	4.81	-3.08545e-05
3	26170	4.91	-3.14892e-05
3	26864	5.01	-3.14451e-05
3	27549	5.11	-3.0845e-05
3	28234	5.21	-2.97994e-05
3	28919	5.31	-2.84072e-05
3	29604	5.41	-2.67556e-05
3	30289	5.51	-2.49208e-05
3	30974	5.61	-2.29687e-05
3	31659	5.71	-2.09553e-05
3	32344	5.81	-1.89277e-05
3	33029	5.91	-1.6925e-05
3	33723	6.01	-1.49784e-05
3	34408	6.11	-1.31129e-05
3	35093	6.21	-1.13474e-05
3	35778	6.31	-9.69553e-06
3	36463	6.41	-8.16651e-06
3	37148	6.51	-6.76571e-06
3	37833	6.61	-5.49522e-06
3	38518	6.71	-4.35441e-06
3	39203	6.81	-3.34045e-06
3	39888	6.91	-2.44874e-06
3	40582	7.01	-1.6733e-06
3	41267	7.11	-1.00716e-06
3	41952	7.21	-4.42628e-07
3	42637	7.31	2.84224e-08
3	43322	7.41	4.14339e-07
3	44007	7.51	7.23492e-07
3	44692	7.61	9.6413e-07
3	45377	7.71	1.14424e-06
3	46062	7.81	1.27148e-06
3	46747	7.91	1.35305e-06
3	47441	8.01	1.3957e-06
3	48126	8.11	1.40565e-06
3	48811	8.21	1.3886e-06
3	49496	8.31	1.34971e-06
3	50181	8.41	1.2936e-06
3	50866	8.51	1.22437e-06
3	51551	8.61	1.14561e-06
3	52236	8.71	1.06046e-06
3	52921	8.81	9.71582e-07
3	53606	8.91	8.81246e-07
3	54300	9.01	7.91334e-07
3	54985	9.11	7.03381e-07
3	55670	9.21	6.18613e-07
3	56355	9.31	5.37979e-07
3	57040	9.41	4.62183e-07
3	57725	9.51	3.91714e-07
3	58410	9.61	3.26878e-07
3	59095	9.71	2.67827e-07
3	59780	9.81	2.14581e-07
3	60465	9.91	1.67052e-07
3	63472	10.01	1.25066e-07
3	64157	10.11	8.83794e-08
3	64842	10.21	5.66978e-08
3	65527	10.31	2.96922e-08
3	66212	10.41	7.00453e-09
3	66897	10.51	-1.17325e-08
3	67582	10.61	-2.68933e-08
3	68267	10.71	-3.88482e-08
3	68952	10.81	-4.79581e-08
3	69637	10.91	-5.45704e-08
3	70331	11.01	-5.90177e-08
3	71016	11.11	-6.16069e-08
3	71701	11.21	-6.26265e-08
3	72386	11.31	-6.23395e-08
3	73071	11.41	-6.09859e-08
3	73756	11.51	-5.87811e-08
3	74441	11.61	-5.59183e-08
3	75126	11.71	-5.25674e-08
3	75811	11.81	-4.88761e-08
3	76496	11.91	-4.4971e-08
3	77190	12.01	-4.09599e-08
3	77875	12.11	-3.69354e-08
3	78560	12.21	-3.29713e-08
3	79245	12.31	-2.9128e-08
3	79930	12.41	-2.54531e-08
3	80615	12.51	-2.19821e-08
3	81300	12.61	-1.87399e-08
3	81985	12.71	-1.57428e-08
3	82670	12.81	-1.30029e-08
3	83355	12.91	-1.05217e-08
3	84049	13.01	-8.29772e-09
3	84734	13.11	-6.32454e-09
3	85419	13.21	-4.59224e-09
3	86104	13.31	-3.08802e-09
3	86789	13.41	-1.79838e-09
3	87474	13.51	-7.08411e-10
3	88159	13.61	1.98241e-10
3	88844	13.71	9.37916e-10
3	89529	13.81	1.52767e-09
3	90214	13.91	1.98384e-09
3	90908	14.01	2.32276e-09
3	91593	14.11	2.55937e-09
3	92278	14.21	2.70788e-09
3	92963	14.31	2.78249e-09
3	93648	14.41	2.79243e-09
3	94333	14.51	2.7498e-09
3	95018	14.61	2.66525e-09
3	95703	14.71	2.54872e-09
3	96388	14.81	2.40803e-09
3	97073	14.91	2.24887e-09
3	97767	15.01	2.07763e-09
3	98452	15.11	1.89999e-09
3	99137	15.21	1.72236e-09
3	99822	15.31	1.54472e-09
3	100507	15.41	1.37064e-09
3	101192	15.51	1.20295e-09
3	101877	15.61	1.04379e-09
3	102562	15.71	8.94573e-10
3	103247	15.81	7.56017e-10
3	103932	15.91	6.29541e-10
3	104626	16.01	5.13012e-10
3	105311	16.11	4.09273e-10
3	105996	16.21	3.16902e-10
3	106681	16.31	2.3519e-10
3	107366	16.41	1.63425e-10
3	108051	16.51	1.02318e-10
3	108736	16.61	4.9738e-11
3	109421	16.71	5.68434e-12
3	110106	16.81	-3.05533e-11
3	110791	16.91	-5.8975e-11
3	111485	17.01	-8.10019e-11
3	112170	17.11	-9.80549e-11
3	112855	17.21	-1.11555e-10
3	113540	17.31	-1.18661e-10
3	114225	17.41	-1.23634e-10
3	114910	17.51	-1.23634e-10
3	115595	17.61	-1.23634e-10
3	116280	17.71	-1.21503e-10
3	116965	17.81	-1.14397e-10
3	117650	17.91	-1.07292e-10
3	118344	18.01	-1.00187e-10
3	119029	18.11	-9.30811e-11
3	119714	18.21	-8.59757e-11
3	120399	18.31	-7.88702e-11
3	121084	18.41	-7.17648e-11
3	121769	18.51	-6.46594e-11
3	122454	18.61	-5.7554e-11
3	123139	18.71	-5.04485e-11
3	123824	18.81	-4.33431e-11
3	124509	18.91	-3.62377e-11
3	125203	19.01	-2.91323e-11
3	125888	19.11	-2.20268e-11
3	126573	19.21	-1.7053e-11
3	127258	19.31	-1.49214e-11
3	127943	19.41	-1.35003e-11
3	128628	19.51	-1.27898e-11
3	129313	19.61	-1.13687e-11
3	129998	19.71	-9.9476e-12
3	130683	19.81	-9.23706e-12
3	131368	19.91	-8.52651e-12
3	132062	20.01	-7.81597e-12
3	132747	20.11	-7.10543e-12
3	133432	20.21	-6.39488e-12
3	134117	20.31	-5.68434e-12
3	134802	20.41	-4.9738e-12
3	135487	20.51	-4.26326e-12
3	136172	20.61	-4.26326e-12
3	136857	20.71	-3.55271e-12
3	137542	20.81	-3.55271e-12
3	138227	20.91	-2.84217e-12
3	138921	21.01	-2.84217e-12
3	139606	21.11	-2.84217e-12
3	140291	21.21	-2.13163e-12
3	140976	21.31	-2.13163e-12
3	141661	21.41	-2.13163e-12
3	142346	21.51	-1.42109e-12
3	143031	21.61	-1.42109e-12
3	143716	21.71	-1.42109e-12
3	144401	21.81	-1.42109e-12
3	145086	21.91	-1.42109e-12
3	145780	22.01	-7.10543e-13
3	146465	22.11	-7.10543e-13
3	147150	22.21	-7.10543e-13
3	147835	22.31	-7.10543e-13
3	148520	22.41	-7.10543e-13
3	149205	22.51	-7.10543e-13
3	149890	22.61	-7.10543e-13
3	150575	22.71	-7.10543e-13
3	151260	22.81	-7.10543e-13
3	151945	22.91	-7.10543e-13
3	152639	23.01	0
3	153324	23.11	0
3	154009	23.21	0
3	154694	23.31	0
3	155379	23.41	0
3	156064	23.51	0
3	156749	23.61	0
3	157434	23.71	0
3	158119	23.81	0
3	158804	23.91	0
3	159498	24.01	0
3	160183	24.11	0
3	160868	24.21	0
3	161553	24.31	0
3	162238	24.41	0
3	162923	24.51	0
3	163608	24.61	0
3	164293	24.71	0
3	164978	24.81	0
3	165663	24.91	0
3	166357	25.01	0
3	167042	25.11	0
3	167727	25.21	0
3	168412	25.31	0
3	169097	25.41	0
3	169782	25.51	0
3	170467	25.61	0
3	171152	25.71	0
3	171837	25.81	0
3	172522	25.91	0
3	173216	26.01	0
3	173901	26.11	0
3	174586	26.21	0
3	175271	26.31	0
3	175956	26.41	0
3	176641	26.51	0
3	177326	26.61	0
3	178011	26.71	0
3	178696	26.81	0
3	179381	26.91	0
3	180075	27.01	0
3	180760	27.11	0
3	181445	27.21	0
3	182130	27.31	0
3	182815	27.41	0
3	183500	27.51	0
3	184185	27.61	0
3	184870	27.71	0
3	185555	27.81	0
3	186240	27.91	0
3	186934	28.01	0
3	187619	28.11	0
3	188304	28.21	0
3	188989	28.31	0
3	189674	28.41	0
3	190359	28.51	0
3	191044	28.61	0
3	191729	28.71	0
3	192414	28.81	0
3	193099	28.91	0
3	193793	29.01	0
3	194478	29.11	0
3	195163	29.21	0
3	195848	29.31	0
3	196533	29.41	0
3	197218	29.51	0
3	197903	29.61	0
3	198588	29.71	0
3	199273	29.81	0
3	199958	29.91	0
3	200652	30.01	0
3	201337	30.11	0
3	202022	30.21	0
3	202707	30.31	0
3	203392	30.41	0
3	204077	30.51	0
3	204762	30.61	0
3	205447	30.71	0
3	206132	30.81	0
3	206817	30.91	0
3	207511	31.01	0
3	208196	31.11	0
3	208881	31.21	0
3	209566	31.31	0
3	210251	31.41	0
3	210936	31.51	0
3	211621	31.61	0
3	212306	31.71	0
3	212991	31.81	0
3	213676	31.91	0
3	214370	32.01	0
3	215055	32.11	0
3	215740	32.21	0
3	216425	32.31	0
3	217110	32.41	0
3	217795	32.51	0
3	218480	32.61	0
3	219165	32.71	0
3	219850	32.81	0
3	220535	32.91	0
3	221229	33.01	0
3	221914	33.11	0
3	222599	33.21	0
3	223284	33.31	0
3	223969	33.41	0
3	224654	33.51	0
3	225339	33.61	0
3	226024	33.71	0
3	226709	33.81	0
3	227394	33.91	0
3	228088	34.01	0
3	228773	34.11	0
3	229458	34.21	0
3	230143	34.31	0
3	230828	34.41	0
3	231513	34.51	0
3	232198	34.61	0
3	232883	34.71	0
3	233568	34.81	0
3	234253	34.91	0
3	234947	35.01	0
3	235632	35.11	0
3	236317	35.21	0
3	237002	35.31	0
3	237687	35.41	0
3	238372	35.51	0
3	239057	35.61	0
3	239742	35.71	0
3	240427	35.81	0
3	241112	35.91	0
3	241806	36.01	0
3	242491	36.11	0
3	243176	36.21	0
3	243861	36.31	0
3	244546	36.41	0
3	245231	36.51	0
3	245916	36.61	0
3	246601	36.71	0
3	247286	36.81	0
3	247971	36.91	0
3	248665	37.01	0
3	249350	37.11	0
3	250035	37.21	0
3	250720	37.31	0
3	251405	37.41	0
3	252090	37.51	0
3	252775	37.61	0
3	253460	37.71	0
3	254145	37.81	0
3	254830	37.91	0
3	255524	38.01	0
3	256209	38.11	0
3	256894	38.21	0
3	257579	38.31	0
3	258264	38.41	0
3	258949	38.51	0
3	259634	38.61	0
3	260319	38.71	0
3	261004	38.81	0
3	261689	38.91	0
3	262383	39.01	0
3	263068	39.11	0
3	263753	39.21	0
3	264438	39.31	0
3	265123	39.41	0
3	265808	39.51	0
3	266493	39.61	0
3	267178	39.71	0
3	267863	39.81	0
3	268548	39.91	0
3	269242	40.01	0
3	269927	40.11	0
3	270612	40.21	0
3	271297	40.31	0
3	271982	40.41	0
3	272667	40.51	0
3	273352	40.61	0
3	274037	40.71	0
3	274722	40.81	0
3	275407	40.91	0
3	276101	41.01	0
3	276786	41.11	0
3	277471	41.21	0
3	278156	41.31	0
3	278841	41.41	0
3	279526	41.51	0
3	280211	41.61	0
3	280896	41.71	0
3	281581	41.81	0
3	282266	41.91	0
3	282960	42.01	0
3	283645	42.11	0
3	284330	42.21	0
3	285015	42.31	0
3	285700	42.41	0
3	286385	42.51	0
3	287070	42.61	0
3	287755	42.71	0
3	288440	42.81	0
3	289125	42.91	0
3	289819	43.01	0
3	290504	43.11	0
3	291189	43.21	0
3	291874	43.31	0
3	292559	43.41	0
3	293244	43.51	0
3	293929	43.61	0
3	294614	43.71	0
3	295299	43.81	0
3	295984	43.91	0
3	296678	44.01	0
3	297363	44.11	0
3	298048	44.21	0
3	298733	44.31	0
3	299418	44.41	0
3	300103	44.51	0
3	300788	44.61	0
3	301473	44.71	0
3	302158	44.81	0
3	302843	44.91	0
3	303537	45.01	0
3	304222	45.11	0
3	304907	45.21	0
3	305592	45.31	0
3	306277	45.41	0
3	306962	45.51	0
3	307647	45.61	0
3	308332	45.71	0
3	309017	45.81	0
3	309702	45.91	0
3	310396	46.01	0
3	311081	46.11	0
3	311766	46.21	0
3	312451	46.31	0
3	313136	46.41	0
3	313821	46.51	0
3	314506	46.61	0
3	315191	46.71	0
3	315876	46.81	0
3	316561	46.91	0
3	317255	47.01	0
3	317940	47.11	0
3	318625	47.21	0
3	319310	47.31	0
3	319995	47.41	0
3	320680	47.51	0
3	321365	47.61	0
3	322050	47.71	0
3	322735	47.81	0
3	323420	47.91	0
3	324114	48.01	0
3	324799	48.11	0
3	325484	48.21	0
3	326169	48.31	0
3	326854	48.41	0
3	327539	48.51	0
3	328224	48.61	0
3	328909	48.71	0
3	329594	48.81	0
3	330279	48.91	0
3	330973	49.01	0
3	331658	49.11	0
3	332343	49.21	0
3	333028	49.31	0
3	333713	49.41	0
3	334398	49.51	0
3	335083	49.61	0
3	335768	49.71	0
3	336453	49.81	0
3	337138	49.91	0
3	337832	50.01	0
3	338517	50.11	0
3	339202	50.21	0
3	339887	50.31	0
3	340572	50.41	0
3	341257	50.51	0
3	341942	50.61	0
3	342627	50.71	0
3	343312	50.81	0
3	343997	50.91	0
3	344691	51.01	0
3	345376	51.11	0
3	346061	51.21	0
3	346746	51.31	0
3	347431	51.41	0
3	348116	51.51	0
3	348801	51.61	0
3	349486	51.71	0
3	350171	51.81	0
3	350856	51.91	0
3	351550	52.01	0
3	352235	52.11	0
3	352920	52.21	0
3	353605	52.31	0
3	354290	52.41	0
3	354975	52.51	0
3	355660	52.61	0
3	356345	52.71	0
3	357030	52.81	0
3	357715	52.91	0
3	358409	53.01	0
3	359094	53.11	0
3	359779	53.21	0
3	360464	53.31	0
3	361149	53.41	0
3	361834	53.51	0
3	362519	53.61	0
3	363204	53.71	0
3	363889	53.81	0
3	364574	53.91	0
3	365268	54.01	0
3	365953	54.11	0
3	366638	54.21	0
3	367323	54.31	0
3	368008	54.41	0
3	368693	54.51	0
3	369378	54.61	0
3	370063	54.71	0
3	370748	54.81	0
3	371433	54.91	0
3	372127	55.01	0
3	372812	55.11	0
3	373497	55.21	0
3	374182	55.31	0
3	374867	55.41	0
3	375552	55.51	0
3	376237	55.61	0
3	376922	55.71	0
3	377607	55.81	0
3	378292	55.91	0
3	378986	56.01	0
3	379671	56.11	0
3	380356	56.21	0
3	381041	56.31	0
3	381726	56.41	0
3	382411	56.51	0
3	383096	56.61	0
3	383781	56.71	0
3	384466	56.81	0
3	385151	56.91	0
3	385845	57.01	0
3	386530	57.11	0
3	387215	57.21	0
3	387900	57.31	0
3	388585	57.41	0
3	389270	57.51	0
3	389955	57.61	0
3	390640	57.71	0
3	391325	57.81	0
3	392010	57.91	0
3	392704	58.01	0
3	393389	58.11	0
3	394074	58.21	0
3	394759	58.31	0
3	395444	58.41	0
3	396129	58.51	0
3	396814	58.61	0
3	397499	58.71	0
3	398184	58.81	0
3	398869	58.91	-0.0249212
3	399563	59.01	-0.0778463
3	400248	59.11	-0.118622
3	400933	59.21	-0.148733
3	401618	59.31	-0.169572
3	402303	59.41	-0.182431
3	402988	59.51	-0.188503
3	403673	59.61	-0.188877
3	404358	59.71	-0.184543
3	405043	59.81	-0.176391
3	405728	59.91	-0.165216
3	406422	60.01	-0.151723
3	407107	60.11	-0.136531
3	407792	60.21	-0.120178
3	408477	60.31	-0.103128
3	409162	60.41	-0.0857728
3	409847	60.51	-0.0684455
3	410532	60.61	-0.0514192
3	411217	60.71	-0.034916
3	411902	60.81	-0.0191117
3	412587	60.91	-0.0041415
3	413281	61.01	0.00989561
3	413966	61.11	0.0229318
3	414651	61.21	0.0349261
3	415336	61.31	0.0458605
3	416021	61.41	0.0557364
3	416706	61.51	0.0645709
3	417391	61.61	0.0723942
3	418076	61.71	0.0792468
3	418761	61.81	0.0851769
3	419446	61.91	0.0902387
3	420140	62.01	0.0944903
3	420825	62.11	0.0979923
3	421510	62.21	0.100806
3	422195	62.31	0.102994
3	422880	62.41	0.104616
3	423565	62.51	0.105731
3	424250	62.61	0.106396
3	424935	62.71	0.106665
3	425620	62.81	0.105759
3	426305	62.91	0.103118
3	426999	63.01	0.0991025
3	427684	63.11	0.0940309
3	428369	63.21	0.0881838
3	429054	63.31	0.0818055
3	429739	63.41	0.0751059
3	430424	63.51	0.0682627
3	431109	63.61	0.0614246
3	431794	63.71	0.0547133
[...]
120	557115	82	0.028099662965
120	563974	83	0.02808606567
120	570833	84	0.028085465927
120	577692	85	0.02809786723
120	584551	86	0.028084268566
120	591410	87	0.028096669776
120	598269	88	0.028083070851
120	605128	89	0.028095471793
120	611987	90	0.02808187262
120	618846	91	0.028094273348
120	625705	92	0.028093673977
120	632564	93	0.028080074519
120	639423	94	0.028092474985
120	646282	95	0.028091875375
120	653141	96	0.028091275705
120	660000	97	0.028090675962
120	666859	98	0.028090076164
120	673718	99	0.028089476312
120	680577	100	0.028088876399
121	6082	2	0
121	12941	3	0
121	19800	4	0
121	26659	5	0
121	33518	6	0
121	40377	7	0
121	47236	8	0
121	54095	9	0
121	60955	10	0
121	70126	11	0
121	76985	12	0
121	83844	13	0
121	90703	14	0
121	97562	15	0
121	104421	16	0
121	111280	17	0
121	118139	18	0
121	124998	19	0
121	131857	20	0
121	138716	21	0
121	145575	22	0
121	152434	23	0
121	159293	24	0
121	166152	25	0
121	173011	26	0
121	179870	27	0
121	186729	28	0
121	193588	29	0
121	200447	30	0
121	207306	31	0
121	214165	32	0
121	221024	33	0
121	227883	34	0
121	234742	35	0
121	241601	36	0
121	248460	37	0
121	255319	38	0
121	262178	39	0
121	269037	40	0
121	275896	41	0
121	282755	42	0
121	289614	43	0
121	296473	44	0
121	303332	45	0
121	310191	46	0
121	317050	47	0
121	323909	48	0
121	330768	49	0
121	337627	50	0
121	344486	51	0
121	351345	52	0
121	358204	53	0
121	365063	54	0
121	371922	55	0
121	378781	56	0
121	385640	57	0
121	392499	58	0
121	399358	59	0
121	406217	60	0
121	413076	61	0
121	419935	62	0
121	426794	63	0
121	433653	64	0
121	440512	65	0
121	447371	66	0
121	454230	67	0
121	461089	68	0
121	467948	69	0
121	474807	70	0
121	481666	71	0
121	488525	72	0
121	495384	73	0
121	502243	74	0
121	509102	75	0
121	515961	76	0
121	522820	77	0
121	529679	78	0
121	536538	79	0
121	543397	80	0
121	550256	81	0
121	557115	82	0
121	563974	83	0
121	570833	84	0
121	577692	85	0
121	584551	86	0
121	591410	87	0
121	598269	88	0
121	605128	89	0
121	611987	90	0
121	618846	91	0
121	625705	92	0
121	632564	93	0
121	639423	94	0
121	646282	95	0
121	653141	96	0
121	660000	97	0
121	666859	98	0
121	673718	99	0
121	680577	100	0
122	6083	2	6
122	12942	3	6
122	19801	4	6
122	26660	5	6
122	33519	6	6
122	40378	7	6
122	47237	8	6
122	54096	9	6
122	60956	10	6
122	70127	11	6
122	76986	12	6
122	83845	13	6
122	90704	14	6
122	97563	15	6
122	104422	16	6
122	111281	17	6
122	118140	18	6
122	124999	19	6
122	131858	20	6
122	138717	21	6
122	145576	22	6
122	152435	23	6
122	159294	24	6
122	166153	25	6
122	173012	26	6
122	179871	27	6
122	186730	28	6
122	193589	29	6
122	200448	30	6
122	207307	31	6
122	214166	32	6
122	221025	33	6
122	227884	34	6
122	234743	35	6
122	241602	36	6
122	248461	37	6
122	255320	38	6
122	262179	39	6
122	269038	40	6
122	275897	41	6
122	282756	42	6
122	289615	43	6
122	296474	44	6
122	303333	45	6
122	310192	46	6
122	317051	47	6
122	323910	48	6
122	330769	49	6
122	337628	50	6
122	344487	51	6
122	351346	52	6
122	358205	53	6
122	365064	54	6
122	371923	55	6
122	378782	56	6
122	385641	57	6
122	392500	58	6
122	399359	59	6
122	406218	60	6
122	413077	61	6
122	419936	62	6
122	426795	63	6
122	433654	64	6
122	440513	65	6
122	447372	66	6
122	454231	67	6
122	461090	68	6
122	467949	69	6
122	474808	70	6
122	481667	71	6
122	488526	72	6
122	495385	73	6
122	502244	74	6
122	509103	75	6
122	515962	76	6
122	522821	77	6
122	529680	78	6
122	536539	79	6
122	543398	80	6
122	550257	81	6
122	557116	82	6
122	563975	83	6
122	570834	84	6
122	577693	85	6
122	584552	86	6
122	591411	87	6
122	598270	88	6
122	605129	89	6
122	611988	90	6
122	618847	91	6
122	625706	92	6
122	632565	93	6
122	639424	94	6
122	646283	95	6
122	653142	96	6
122	660001	97	6
122	666860	98	6
122	673719	99	6
122	680578	100	6
123	6083	2	0.024459635584
123	12942	3	0.028090794984
123	19801	4	0.02809079497
123	26660	5	0.028090794969
123	33519	6	0.02809079495
123	40378	7	0.02809079494
123	47237	8	0.02809079494
123	54096	9	0.02809079494
123	60956	10	0.02809079494
123	70127	11	0.030260247709
123	76986	12	0.028090301648
123	83845	13	0.028089917256
123	90704	14	0.028089466005
123	97563	15	0.028088683203
123	104422	16	0.028087787057
123	111281	17	0.028086925124
123	118140	18	0.028099209592
123	124999	19	0.028085646847
123	131858	20	0.028085166196
123	138717	21	0.028097689665
123	145576	22	0.028084187228
123	152435	23	0.028096642961
123	159294	24	0.028083051116
123	166153	25	0.028095433124
123	173012	26	0.028081806377
123	179871	27	0.028094177224
123	186730	28	0.028093547896
123	193589	29	0.02809291934
123	200448	30	0.028079296525
123	207307	31	0.028091665293
123	214166	32	0.028091040105
123	221025	33	0.028090416606
123	227884	34	0.028089794495
123	234743	35	0.028089197964
123	241602	36	0.02808861339
123	248461	37	0.02808799282
123	255320	38	0.0281003733
123	262179	39	0.028086754728
123	269038	40	0.028086137002
123	275897	41	0.028098520036
123	282756	42	0.028084903734
123	289615	43	0.028084288029
123	296474	44	0.028096672836
123	303333	45	0.02808305807
123	310192	46	0.028095443682
123	317051	47	0.028094829595
123	323910	48	0.02808121574
123	330769	49	0.028093602043
123	337628	50	0.028092988445
123	344487	51	0.028092374865
123	351346	52	0.028078761228
123	358205	53	0.028091147443
123	365064	54	0.02809053341
123	371923	55	0.028089919017
123	378782	56	0.028089304124
123	385641	57	0.028101689296
123	392500	58	0.028088086502
123	399359	59	0.028087532856
123	406218	60	0.028087029898
123	413077	61	0.028086521275
123	419936	62	0.028098984194
123	426795	63	0.028085426186
123	433654	64	0.028084853548
123	440513	65	0.028097269712
123	447372	66	0.028083676836
123	454231	67	0.02809607587
123	461090	68	0.028082467402
123	467949	69	0.028094852096
123	474808	70	0.028094230722
123	481667	71	0.028080604028
123	488526	72	0.028092972706
123	495385	73	0.028092337358
123	502244	74	0.028091698508
123	509103	75	0.028091056632
123	515962	76	0.028090412078
123	522821	77	0.028089765182
123	529680	78	0.028089116696
123	536539	79	0.028088479836
123	543398	80	0.028087870042
123	550257	81	0.028087272514
123	557116	82	0.028099676353
123	563975	83	0.028086078978
123	570834	84	0.028085479629
123	577693	85	0.028097880567
123	584552	86	0.028084281909
123	591411	87	0.028096683117
123	598270	88	0.028083084192
123	605129	89	0.028095485134
123	611988	90	0.028081885962
123	618847	91	0.028094286689
123	625706	92	0.028093687318
123	632565	93	0.02808008786
123	639424	94	0.028092488327
123	646283	95	0.028091888716
123	653142	96	0.028091289046
123	660001	97	0.028090689304
123	666860	98	0.028090089505
123	673719	99	0.028089489654
123	680578	100	0.02808888974
124	6083	2	0
124	12942	3	0
124	19801	4	0
124	26660	5	0
124	33519	6	0
124	40378	7	0
124	47237	8	0
124	54096	9	0
124	60956	10	0
124	70127	11	0
124	76986	12	0
124	83845	13	0
124	90704	14	0
124	97563	15	0
124	104422	16	0
124	111281	17	0
124	118140	18	0
124	124999	19	0
124	131858	20	0
124	138717	21	0
124	145576	22	0
124	152435	23	0
124	159294	24	0
124	166153	25	0
124	173012	26	0
124	179871	27	0
124	186730	28	0
124	193589	29	0
124	200448	30	0
124	207307	31	0
124	214166	32	0
124	221025	33	0
124	227884	34	0
124	234743	35	0
124	241602	36	0
124	248461	37	0
124	255320	38	0
124	262179	39	0
124	269038	40	0
124	275897	41	0
124	282756	42	0
124	289615	43	0
124	296474	44	0
124	303333	45	0
124	310192	46	0
124	317051	47	0
124	323910	48	0
124	330769	49	0
124	337628	50	0
124	344487	51	0
124	351346	52	0
124	358205	53	0
124	365064	54	0
124	371923	55	0
124	378782	56	0
124	385641	57	0
124	392500	58	0
124	399359	59	0
124	406218	60	0
124	413077	61	0
124	419936	62	0
124	426795	63	0
124	433654	64	0
124	440513	65	0
124	447372	66	0
124	454231	67	0
124	461090	68	0
124	467949	69	0
124	474808	70	0
124	481667	71	0
124	488526	72	0
124	495385	73	0
124	502244	74	0
124	509103	75	0
124	515962	76	0
124	522821	77	0
124	529680	78	0
124	536539	79	0
124	543398	80	0
124	550257	81	0
124	557116	82	0
124	563975	83	0
124	570834	84	0
124	577693	85	0
124	584552	86	0
124	591411	87	0
124	598270	88	0
124	605129	89	0
124	611988	90	0
124	618847	91	0
124	625706	92	0
124	632565	93	0
124	639424	94	0
124	646283	95	0
124	653142	96	0
124	660001	97	0
124	666860	98	0
124	673719	99	0
124	680578	100	0
125	6084	2	7
125	12943	3	7
125	19802	4	7
125	26661	5	7
125	33520	6	7
125	40379	7	7
125	47238	8	7
125	54097	9	7
125	60957	10	7
125	70128	11	7
125	76987	12	7
125	83846	13	7
125	90705	14	7
125	97564	15	7
125	104423	16	7
125	111282	17	7
125	118141	18	7
125	125000	19	7
125	131859	20	7
125	138718	21	7
125	145577	22	7
125	152436	23	7
125	159295	24	7
125	166154	25	7
125	173013	26	7
125	179872	27	7
125	186731	28	7
125	193590	29	7
125	200449	30	7
125	207308	31	7
125	214167	32	7
125	221026	33	7
125	227885	34	7
125	234744	35	7
125	241603	36	7
125	248462	37	7
125	255321	38	7
125	262180	39	7
125	269039	40	7
125	275898	41	7
125	282757	42	7
125	289616	43	7
125	296475	44	7
125	303334	45	7
125	310193	46	7
125	317052	47	7
125	323911	48	7
125	330770	49	7
125	337629	50	7
125	344488	51	7
125	351347	52	7
125	358206	53	7
125	365065	54	7
125	371924	55	7
125	378783	56	7
125	385642	57	7
125	392501	58	7
125	399360	59	7
125	406219	60	7
125	413078	61	7
125	419937	62	7
125	426796	63	7
125	433655	64	7
125	440514	65	7
125	447373	66	7
125	454232	67	7
125	461091	68	7
125	467950	69	7
125	474809	70	7
125	481668	71	7
125	488527	72	7
125	495386	73	7
125	502245	74	7
125	509104	75	7
125	515963	76	7
125	522822	77	7
125	529681	78	7
125	536540	79	7
125	543399	80	7
125	550258	81	7
125	557117	82	7
125	563976	83	7
125	570835	84	7
125	577694	85	7
125	584553	86	7
125	591412	87	7
125	598271	88	7
125	605130	89	7
125	611989	90	7
125	618848	91	7
125	625707	92	7
125	632566	93	7
125	639425	94	7
125	646284	95	7
125	653143	96	7
125	660002	97	7
125	666861	98	7
125	673720	99	7
125	680579	100	7
126	6084	2	0.02445961557
126	12943	3	0.028090794984
126	19802	4	0.02809079497
126	26661	5	0.028090794969
126	33520	6	0.02809079495
126	40379	7	0.02809079494
126	47238	8	0.02809079494
126	54097	9	0.02809079494
126	60957	10	0.02809079494
126	70128	11	0.030260245342
126	76987	12	0.028090306341
126	83846	13	0.028089934202
126	90705	14	0.028089496169
126	97564	15	0.028088711781
126	104423	16	0.028087811539
126	111282	17	0.028086944412
126	118141	18	0.028099223541
126	125000	19	0.028085656348
126	131859	20	0.028085173317
126	138718	21	0.028097694767
126	145577	22	0.028084188981
126	152436	23	0.028096640462
126	159295	24	0.028083045349
126	166154	25	0.028095425546
126	173013	26	0.028081797866
126	179872	27	0.02809416821
126	186731	28	0.02809353859
126	193590	29	0.028092909852
126	200449	30	0.028079286924
126	207308	31	0.028091655635
126	214167	32	0.028091030367
126	221026	33	0.02809040681
126	227885	34	0.028089784663
126	234744	35	0.028089188106
126	241603	36	0.028088603512
126	248462	37	0.028087982925
126	255321	38	0.028100363392
126	262180	39	0.028086744808
126	269039	40	0.028086127073
126	275898	41	0.028098510098
126	282757	42	0.02808489379
126	289616	43	0.028084278079
126	296475	44	0.02809666288
126	303334	45	0.02808304811
126	310193	46	0.028095433719
126	317052	47	0.028094819628
126	323911	48	0.02808120577
126	330770	49	0.02809359207
126	337629	50	0.02809297847
126	344488	51	0.028092364887
126	351347	52	0.028078751249
126	358206	53	0.028091137462
126	365065	54	0.028090523427
126	371924	55	0.028089909033
126	378783	56	0.028089294138
126	385642	57	0.02810167931
126	392501	58	0.028088076514
126	399360	59	0.028087522867
126	406219	60	0.028087019908
126	413078	61	0.028086511284
126	419937	62	0.028098974203
126	426796	63	0.028085416194
126	433655	64	0.028084843555
126	440514	65	0.028097259718
126	447373	66	0.028083666842
126	454232	67	0.028096065875
126	461091	68	0.028082457407
126	467950	69	0.0280948421
126	474809	70	0.028094220726
126	481668	71	0.028080594031
126	488527	72	0.028092962709
126	495386	73	0.028092327361
126	502245	74	0.02809168851
126	509104	75	0.028091046634
126	515963	76	0.028090402079
126	522822	77	0.028089755183
126	529681	78	0.028089105486
126	536540	79	0.028088469185
126	543399	80	0.028087859248
126	550258	81	0.028087262137
126	557117	82	0.028099666305
126	563976	83	0.02808606901
126	570835	84	0.028085469268
126	577694	85	0.02809787057
126	584553	86	0.028084271906
126	591412	87	0.028096673115
126	598271	88	0.028083074191
126	605130	89	0.028095475133
126	611989	90	0.02808187596
126	618848	91	0.028094276687
126	625707	92	0.028093677316
126	632566	93	0.028080077858
126	639425	94	0.028092478325
126	646284	95	0.028091878714
126	653143	96	0.028091279043
126	660002	97	0.028090679302
126	666861	98	0.028090079502
126	673720	99	0.028089479651
126	680579	100	0.028088879737
127	6084	2	0
127	12943	3	0
127	19802	4	0
127	26661	5	0
127	33520	6	0
127	40379	7	0
127	47238	8	0
127	54097	9	0
127	60957	10	0
127	70128	11	0
127	76987	12	0
127	83846	13	0
127	90705	14	0
127	97564	15	0
127	104423	16	0
127	111282	17	0
127	118141	18	0
127	125000	19	0
127	131859	20	0
127	138718	21	0
127	145577	22	0
127	152436	23	0
127	159295	24	0
127	166154	25	0
127	173013	26	0
127	179872	27	0
127	186731	28	0
127	193590	29	0
127	200449	30	0
127	207308	31	0
127	214167	32	0
127	221026	33	0
127	227885	34	0
127	234744	35	0
127	241603	36	0
127	248462	37	0
127	255321	38	0
127	262180	39	0
127	269039	40	0
127	275898	41	0
127	282757	42	0
127	289616	43	0
127	296475	44	0
127	303334	45	0
127	310193	46	0
127	317052	47	0
127	323911	48	0
127	330770	49	0
127	337629	50	0
127	344488	51	0
127	351347	52	0
127	358206	53	0
127	365065	54	0
127	371924	55	0
127	378783	56	0
127	385642	57	0
127	392501	58	0
127	399360	59	0
127	406219	60	0
127	413078	61	0
127	419937	62	0
127	426796	63	0
127	433655	64	0
127	440514	65	0
127	447373	66	0
127	454232	67	0
127	461091	68	0
127	467950	69	0
127	474809	70	0
127	481668	71	0
127	488527	72	0
127	495386	73	0
127	502245	74	0
127	509104	75	0
127	515963	76	0
127	522822	77	0
127	529681	78	0
127	536540	79	0
127	543399	80	0
127	550258	81	0
127	557117	82	0
127	563976	83	0
127	570835	84	0
127	577694	85	0
127	584553	86	0
127	591412	87	0
127	598271	88	0
127	605130	89	0
127	611989	90	0
127	618848	91	0
127	625707	92	0
127	632566	93	0
127	639425	94	0
127	646284	95	0
127	653143	96	0
127	660002	97	0
127	666861	98	0
127	673720	99	0
127	680579	100	0
128	6085	2	8
128	12944	3	8
128	19803	4	8
128	26662	5	8
128	33521	6	8
128	40380	7	8
128	47239	8	8
128	54098	9	8
128	60958	10	8
128	70129	11	8
128	76988	12	8
128	83847	13	8
128	90706	14	8
128	97565	15	8
128	104424	16	8
128	111283	17	8
128	118142	18	8
128	125001	19	8
128	131860	20	8
128	138719	21	8
128	145578	22	8
128	152437	23	8
128	159296	24	8
128	166155	25	8
128	173014	26	8
128	179873	27	8
128	186732	28	8
128	193591	29	8
128	200450	30	8
128	207309	31	8
128	214168	32	8
128	221027	33	8
128	227886	34	8
128	234745	35	8
128	241604	36	8
128	248463	37	8
128	255322	38	8
128	262181	39	8
128	269040	40	8
128	275899	41	8
128	282758	42	8
128	289617	43	8
128	296476	44	8
128	303335	45	8
128	310194	46	8
128	317053	47	8
128	323912	48	8
128	330771	49	8
128	337630	50	8
128	344489	51	8
128	351348	52	8
128	358207	53	8
128	365066	54	8
128	371925	55	8
128	378784	56	8
128	385643	57	8
128	392502	58	8
128	399361	59	8
128	406220	60	8
128	413079	61	8
128	419938	62	8
128	426797	63	8
128	433656	64	8
128	440515	65	8
128	447374	66	8
128	454233	67	8
128	461092	68	8
128	467951	69	8
128	474810	70	8
128	481669	71	8
128	488528	72	8
128	495387	73	8
128	502246	74	8
128	509105	75	8
128	515964	76	8
128	522823	77	8
128	529682	78	8
128	536541	79	8
128	543400	80	8
128	550259	81	8
128	557118	82	8
128	563977	83	8
128	570836	84	8
128	577695	85	8
128	584554	86	8
128	591413	87	8
128	598272	88	8
128	605131	89	8
128	611990	90	8
128	618849	91	8
128	625708	92	8
128	632567	93	8
128	639426	94	8
128	646285	95	8
128	653144	96	8
128	660003	97	8
128	666862	98	8
128	673721	99	8
128	680580	100	8
129	6085	2	0.024459595556
129	12944	3	0.028090794985
129	19803	4	0.028090794969
129	26662	5	0.028090794969
129	33521	6	0.02809079495
129	40380	7	0.02809079494
129	47239	8	0.02809079494
129	54098	9	0.02809079494
129	60958	10	0.02809079494
129	70129	11	0.030187244974
129	76988	12	0.028090310384
129	83847	13	0.028089934424
129	90706	14	0.028089492021
129	97565	15	0.028088705395
129	104424	16	0.02808780491
129	111283	17	0.028086938147
129	118142	18	0.028099217697
129	125001	19	0.028085651059
129	131860	20	0.028085169037
129	138719	21	0.028097692474
129	145578	22	0.028084190195
129	152437	23	0.028096645978
129	159296	24	0.028083054109
129	166155	25	0.028095436076
129	173014	26	0.028081809288
129	179873	27	0.028094180092
129	186732	28	0.028093550718
129	193591	29	0.028092922107
129	200450	30	0.028079299237
129	207309	31	0.028091667958
129	214168	32	0.028091042667
129	221027	33	0.028090419055
129	227886	34	0.028089796829
129	234745	35	0.028089213553
129	241604	36	0.028088616456
129	248463	37	0.028087995812
129	255322	38	0.028100376185
129	262181	39	0.028086757456
129	269040	40	0.028086139488
129	275899	41	0.028098522143
129	282758	42	0.028084905255
129	289617	43	0.028084288721
129	296476	44	0.028096672544
129	303335	45	0.028083056863
129	310194	46	0.028095441789
129	317053	47	0.028094827246
129	323912	48	0.028081213099
129	330771	49	0.028093599215
129	337630	50	0.028092985493
129	344489	51	0.028092371827
129	351348	52	0.028078758129
129	358207	53	0.0280911443
129	365066	54	0.028090530234
129	371925	55	0.028089915816
129	378784	56	0.028089300902
129	385643	57	0.028101686059
129	392502	58	0.028088083252
129	399361	59	0.028087529595
129	406220	60	0.028087026629
129	413079	61	0.028086517999
129	419938	62	0.028098980911
129	426797	63	0.028085422898
129	433656	64	0.028084850256
129	440515	65	0.028097266416
129	447374	66	0.028083673536
129	454233	67	0.028096072567
129	461092	68	0.028082464097
129	467951	69	0.028094848788
129	474810	70	0.028094227413
129	481669	71	0.028080600716
129	488528	72	0.028092969393
129	495387	73	0.028092334043
129	502246	74	0.028091695192
129	509105	75	0.028091053315
129	515964	76	0.02809040876
129	522823	77	0.028089761862
129	529682	78	0.028089112686
129	536541	79	0.028088475848
129	543400	80	0.028087865912
129	550259	81	0.028087268801
129	557118	82	0.02809967297
129	563977	83	0.028086075675
129	570836	84	0.028085475932
129	577695	85	0.028097877235
129	584554	86	0.028084278572
129	591413	87	0.028096679781
129	598272	88	0.028083080856
129	605131	89	0.028095481798
129	611990	90	0.028081882627
129	618849	91	0.028094283353
129	625708	92	0.028093683982
129	632567	93	0.028080084525
129	639426	94	0.028092484991
129	646285	95	0.02809188538
129	653144	96	0.028091285711
129	660003	97	0.028090685968
129	666862	98	0.028090086169
129	673721	99	0.028089486319
129	680580	100	0.028088886404
130	6085	2	0
130	12944	3	0
130	19803	4	0
130	26662	5	0
130	33521	6	0
130	40380	7	0
130	47239	8	0
130	54098	9	0
130	60958	10	0
130	70129	11	0
130	76988	12	0
130	83847	13	0
130	90706	14	0
130	97565	15	0
130	104424	16	0
130	111283	17	0
130	118142	18	0
130	125001	19	0
130	131860	20	0
130	138719	21	0
130	145578	22	0
130	152437	23	0
130	159296	24	0
130	166155	25	0
130	173014	26	0
130	179873	27	0
130	186732	28	0
130	193591	29	0
130	200450	30	0
130	207309	31	0
130	214168	32	0
130	221027	33	0
130	227886	34	0
130	234745	35	0
130	241604	36	0
130	248463	37	0
130	255322	38	0
130	262181	39	0
130	269040	40	0
130	275899	41	0
130	282758	42	0
130	289617	43	0
130	296476	44	0
130	303335	45	0
130	310194	46	0
130	317053	47	0
130	323912	48	0
130	330771	49	0
130	337630	50	0
130	344489	51	0
130	351348	52	0
130	358207	53	0
130	365066	54	0
130	371925	55	0
130	378784	56	0
130	385643	57	0
130	392502	58	0
130	399361	59	0
130	406220	60	0
130	413079	61	0
130	419938	62	0
130	426797	63	0
130	433656	64	0
130	440515	65	0
130	447374	66	0
130	454233	67	0
130	461092	68	0
130	467951	69	0
130	474810	70	0
130	481669	71	0
130	488528	72	0
130	495387	73	0
130	502246	74	0
130	509105	75	0
130	515964	76	0
130	522823	77	0
130	529682	78	0
130	536541	79	0
130	543400	80	0
130	550259	81	0
130	557118	82	0
130	563977	83	0
130	570836	84	0
130	577695	85	0
130	584554	86	0
130	591413	87	0
130	598272	88	0
130	605131	89	0
130	611990	90	0
130	618849	91	0
130	625708	92	0
130	632567	93	0
130	639426	94	0
130	646285	95	0
130	653144	96	0
130	660003	97	0
130	666862	98	0
130	673721	99	0
130	680580	100	0

