file 1610873 1720715738                                         
version 3
run BreakRanksNoGui-1734-20240711-18:35:32-303994
attr configname BreakRanksNoGui
attr datetime 20240711-18:35:32
attr datetimef 20240711-183532
attr experiment BreakRanksNoGui
attr inifile omnetpp.ini
attr iterationvars "$nCars=6, $platoonSize=4, $nLanes=1, $ploegH=0.5, $controller=1, $headway=0.1, $leaderHeadway=1.2, $leaderSpeed=110, $breakRanksSafetyDistance=20, $minSpeed=100, $maxSpeed=120, $beaconInterval=0.1, $priority=4, $packetSize=200, $sController=\"CACC\", $0=2, $1=0"
attr iterationvarsd nCars=6/platoonSize=4/nLanes=1/ploegH=0.5/controller=1/headway=0.1/leaderHeadway=1.2/leaderSpeed=110/breakRanksSafetyDistance=20/minSpeed=100/maxSpeed=120/beaconInterval=0.1/priority=4/packetSize=200/sController=CACC/2/0
attr iterationvarsf nCars=6,platoonSize=4,nLanes=1,ploegH=0.5,controller=1,headway=0.1,leaderHeadway=1.2,leaderSpeed=110,breakRanksSafetyDistance=20,minSpeed=100,maxSpeed=120,beaconInterval=0.1,priority=4,packetSize=200,sController=CACC,2,0-
attr measurement "$nCars=6, $platoonSize=4, $nLanes=1, $ploegH=0.5, $controller=1, $headway=0.1, $leaderHeadway=1.2, $leaderSpeed=110, $breakRanksSafetyDistance=20, $minSpeed=100, $maxSpeed=120, $beaconInterval=0.1, $priority=4, $packetSize=200, $sController=\"CACC\", $0=2, $1=0"
attr network Highway
attr processid 303994
attr repetition 4
attr replication #4
attr resultdir results
attr runnumber 1734
attr seedset 4
itervar beaconInterval 0.1
itervar breakRanksSafetyDistance 20
itervar controller 1
itervar headway 0.1
itervar leaderHeadway 1.2
itervar leaderSpeed 110
itervar maxSpeed 120
itervar minSpeed 100
itervar nCars 6
itervar nLanes 1
itervar packetSize 200
itervar platoonSize 4
itervar ploegH 0.5
itervar priority 4
itervar sController "\"CACC\""
config image-path ../../../veins/images
config repeat 10
config extends BreakRanks
config *.manager.command "\"sumo\""
config *.manager.ignoreGuiCommands true
config output-vector-file "results/BreakRanks_1_0.1_110_20_4 /result_4.vec"
config output-scalar-file "results/BreakRanks_1_0.1_110_20_4 /result_4.sca"
config extends Platooning
config *.node[*].scenario_type "\"BreakRanksScenario\""
config *.manager.command "\"sumo-gui\""
config *.node[*].scenario_type "\"SimpleScenario\""
config cmdenv-express-mode true
config cmdenv-autoflush true
config cmdenv-status-frequency 15s
config num-rngs 6
config network Highway
config debug-on-errors true
config print-undisposed true
config *.playgroundSizeX 65000m
config *.playgroundSizeY 25000m
config *.playgroundSizeZ 50m
config sim-time-limit "100 s"
config *.annotations.draw false
config *.obstacles.debug false
config *.world.useTorus false
config *.world.use2D false
config *.manager.updateInterval 0.01s
config *.manager.host "\"localhost\""
config *.manager.moduleType "\"org.car2x.plexe.PlatoonCar\""
config *.manager.moduleName "\"node\""
config *.manager.moduleDisplayString "\"\""
config *.manager.autoShutdown true
config *.manager.margin 25
config *.connectionManager.sendDirect true
config *.connectionManager.maxInterfDist 2600m
config *.connectionManager.drawMaxIntfDist false
config *.**.nic.mac1609_4.useServiceChannel false
config *.**.nic.mac1609_4.txPower 100mW
config *.**.nic.mac1609_4.bitrate 6Mbps
config *.**.nic.mac1609_4.useAcks true
config *.**.nic.mac1609_4.ackErrorRate 0.0
config *.**.nic.mac1609_4.frameErrorRate 0.0
config *.**.nic.phy80211p.minPowerLevel -94dBm
config *.**.nic.phy80211p.maxTXPower 100mW
config *.**.nic.phy80211p.useNoiseFloor true
config *.**.nic.phy80211p.noiseFloor -95dBm
config *.**.nic.phy80211p.decider "xmldoc(\"config.xml\")"
config *.**.nic.phy80211p.analogueModels "xmldoc(\"config.xml\")"
config *.**.nic.phy80211p.usePropagationDelay true
config *.node[*].mobility.x 0
config *.node[*].mobility.y 0
config *.node[*].mobility.z 1.895
config seed-set 4
config **.seed 4
config *.node[*].prot.rng-0 2
config *.node[*].appl.rng-0 3
config *.node[*].scenario.rng-0 4
config **.traffic.rng-0 5
config *.manager.configFile "\"./sumocfg/freeway.sumo.cfg\""
config *.manager.launchConfig "xmldoc(\"./sumocfg/freeway.launchd.xml\")"
config **.numberOfCars 6
config **.numberOfCarsPerPlatoon 4
config **.numberOfLanes 1
config *.node[*].helper_type "\"PositionHelper\""
config *.node[*].scenario.caccC1 0.5
config *.node[*].scenario.caccXi 1
config *.node[*].scenario.caccOmegaN "0.2 Hz"
config *.node[*].scenario.caccSpacing "2 m"
config *.node[*].scenario.engineTau "0.5 s"
config *.node[*].scenario.ploegH 0.5s
config *.node[*].scenario.ploegKp 0.2
config *.node[*].scenario.ploegKd 0.7
config *.node[*].scenario.useRealisticEngine false
config *.node[*].scenario.useControllerAcceleration true
config *.node[*].scenario.nLanes 1
config **.numericController 1
config **.headway 0.1s
config *.node[*].scenario.accHeadway 0.1s
config *.node[*].scenario.leaderHeadway 1.2s
config *.node[*].scenario.leaderSpeed 110kmph
config *.node[*].appl_type "\"SimplePlatooningApp\""
config *.node[*].appl.*.scalar-recording true
config *.node[*].appl.*.vector-recording true
config *.node[0].appl.breakRanksSafetyDistance 20m
config *.node[*].appl.minSpeed 100kmph
config *.node[*].appl.maxSpeed 120kmph
config *.node[*].protocol_type "\"SimplePlatooningBeaconing\""
config *.node[*].prot.*.scalar-recording true
config *.node[*].prot.*.vector-recording true
config *.node[*].prot.beaconingInterval 0.1s
config *.node[*].prot.priority 4
config *.node[*].prot.packetSize 200
config **.traffic_type "\"PlatoonsTrafficManager\""
config **.traffic.platoonInsertTime "1 s"
config **.traffic.platoonInsertSpeed 110kmph
config **.traffic.nCars 6
config **.traffic.platoonSize 4
config **.traffic.nLanes 1
config **.traffic.platooningVType "\"vtypeauto\""
config **.traffic.controller "\"CACC\""
config **.traffic.platoonInsertDistance 2m
config **.traffic.platoonInsertHeadway 0s
config **.traffic.platoonLeaderHeadway 1.2s
config **.scalar-recording false
config **.vector-recording false

vector 0 Highway.node[0].appl distance ETV
vector 1 Highway.node[0].appl relativeSpeed ETV
vector 2 Highway.node[0].appl nodeId ETV
vector 3 Highway.node[0].appl acceleration ETV
vector 4 Highway.node[0].appl controllerAcceleration ETV
vector 5 Highway.node[0].appl speed ETV
vector 6 Highway.node[0].appl posx ETV
vector 7 Highway.node[0].appl posy ETV
vector 8 Highway.node[1].appl distance ETV
vector 9 Highway.node[1].appl relativeSpeed ETV
vector 10 Highway.node[1].appl nodeId ETV
vector 11 Highway.node[1].appl acceleration ETV
vector 12 Highway.node[1].appl controllerAcceleration ETV
vector 13 Highway.node[1].appl speed ETV
vector 14 Highway.node[1].appl posx ETV
vector 15 Highway.node[1].appl posy ETV
vector 16 Highway.node[2].appl distance ETV
vector 17 Highway.node[2].appl relativeSpeed ETV
vector 18 Highway.node[2].appl nodeId ETV
vector 19 Highway.node[2].appl acceleration ETV
vector 20 Highway.node[2].appl controllerAcceleration ETV
vector 21 Highway.node[2].appl speed ETV
vector 22 Highway.node[2].appl posx ETV
vector 23 Highway.node[2].appl posy ETV
vector 24 Highway.node[3].appl distance ETV
vector 25 Highway.node[3].appl relativeSpeed ETV
vector 26 Highway.node[3].appl nodeId ETV
vector 27 Highway.node[3].appl acceleration ETV
vector 28 Highway.node[3].appl controllerAcceleration ETV
vector 29 Highway.node[3].appl speed ETV
vector 30 Highway.node[3].appl posx ETV
vector 31 Highway.node[3].appl posy ETV
vector 32 Highway.node[4].appl distance ETV
vector 33 Highway.node[4].appl relativeSpeed ETV
vector 34 Highway.node[4].appl nodeId ETV
vector 35 Highway.node[4].appl acceleration ETV
vector 36 Highway.node[4].appl controllerAcceleration ETV
vector 37 Highway.node[4].appl speed ETV
vector 38 Highway.node[4].appl posx ETV
vector 39 Highway.node[4].appl posy ETV
vector 40 Highway.node[5].appl distance ETV
vector 41 Highway.node[5].appl relativeSpeed ETV
vector 42 Highway.node[5].appl nodeId ETV
vector 43 Highway.node[5].appl acceleration ETV
vector 44 Highway.node[5].appl controllerAcceleration ETV
vector 45 Highway.node[5].appl speed ETV
vector 46 Highway.node[5].appl posx ETV
vector 47 Highway.node[5].appl posy ETV
vector 48 Highway.node[1].prot leaderDelay ETV
vector 49 Highway.node[1].prot leaderDelayId ETV
vector 50 Highway.node[1].prot frontDelay ETV
vector 51 Highway.node[1].prot frontDelayId ETV
vector 52 Highway.node[2].prot leaderDelay ETV
vector 53 Highway.node[2].prot leaderDelayId ETV
vector 54 Highway.node[3].prot leaderDelay ETV
vector 55 Highway.node[3].prot leaderDelayId ETV
vector 56 Highway.node[3].prot frontDelay ETV
vector 57 Highway.node[3].prot frontDelayId ETV
vector 58 Highway.node[2].prot frontDelay ETV
vector 59 Highway.node[2].prot frontDelayId ETV
vector 60 Highway.node[5].prot leaderDelay ETV
vector 61 Highway.node[5].prot leaderDelayId ETV
vector 62 Highway.node[5].prot frontDelay ETV
vector 63 Highway.node[5].prot frontDelayId ETV
vector 64 Highway.node[0].prot nodeId ETV
vector 65 Highway.node[0].prot busyTime ETV
vector 66 Highway.node[0].prot collisions ETV
vector 67 Highway.node[1].prot nodeId ETV
vector 68 Highway.node[1].prot busyTime ETV
vector 69 Highway.node[1].prot collisions ETV
vector 70 Highway.node[2].prot nodeId ETV
vector 71 Highway.node[2].prot busyTime ETV
vector 72 Highway.node[2].prot collisions ETV
vector 73 Highway.node[3].prot nodeId ETV
vector 74 Highway.node[3].prot busyTime ETV
vector 75 Highway.node[3].prot collisions ETV
vector 76 Highway.node[4].prot nodeId ETV
vector 77 Highway.node[4].prot busyTime ETV
vector 78 Highway.node[4].prot collisions ETV
vector 79 Highway.node[5].prot nodeId ETV
vector 80 Highway.node[5].prot busyTime ETV
vector 81 Highway.node[5].prot collisions ETV
0	9633 17174 113 188565 1.11 99.91 989 -1 9329.83 73657.64 696366803.6312
1	26807 16224 113 188565 1.11 99.91 989 0 0.000493686 0.0025641638 1.0129869424684e-06
2	43031 16145 113 188565 1.11 99.91 989 0 0 0 0
3	59176 18733 113 188565 1.11 99.91 989 -0.00283113 0.000125957 -0.043966303784312 9.6812896349407e-05
4	77909 26113 113 188565 1.11 99.91 989 -0.00437036 0.00019576 -0.042459310034081 0.00013890441444735
5	104022 22075 113 188565 1.11 99.91 989 30.5554 30.56 30219.5304 923377.16656332
6	126097 21985 113 188565 1.11 99.91 989 42.0304 3060.93 1534414.7242 3133258049.5249
7	148082 21090 113 188565 1.11 99.91 989 242.45 242.45 239783.05 58135400.472499
8	169172 20066 114 188566 1.11 99.91 989 -1 24.0596 8189.13 153943.84501802
9	189238 20777 114 188566 1.11 99.91 989 -0.000377192 2 197.84847163954 206.62403032328
10	210015 17134 114 188566 1.11 99.91 989 1 1 989 989
11	227149 25317 114 188566 1.11 99.91 989 -0.99866 0.115815 -15.563251633015 18.873394558491
12	252466 26192 114 188566 1.11 99.91 989 -1.5 0.116767 -14.59786421089 25.000864081543
13	278658 21513 114 188566 1.11 99.91 989 28.9309 30.56 29432.1861 876371.24121359
14	300171 22991 114 188566 1.11 99.91 989 36.0304 2976.27 1502231.6981 3000443108.1052
15	323162 22079 114 188566 1.11 99.91 989 242.45 245.75 241103.05 58779824.4725
16	345241 22937 115 188567 1.11 99.91 989 1.99964 104.619 37361.62743 2432120.7492678
17	368178 23842 115 188567 1.11 99.91 989 -0.00012811 1.62439 787.12419189745 1077.2278884321
18	392020 17134 115 188567 1.11 99.91 989 2 2 1978 3956
19	409154 25120 115 188567 1.11 99.91 989 -0.99474 0.179259 -15.56331685482 30.455585089785
20	434274 25997 115 188567 1.11 99.91 989 -1.5 0.180202 -14.598609032489 38.1824804504
21	460271 21506 115 188567 1.11 99.91 989 28.0361 30.56 29252.559 865829.17371462
22	481777 22974 115 188567 1.11 99.91 989 30.0304 2952.31 1482370.874 2931981171.4495
23	504751 22079 115 188567 1.11 99.91 989 242.45 242.45 239783.05 58135400.472499
24	526830 21095 116 188568 1.11 99.91 989 -1 43.8584 8135.44141 169858.16410132
25	547925 21891 116 188568 1.11 99.91 989 -1.24914 0.95729 158.82010724529 139.07458258444
26	569816 17134 116 188568 1.11 99.91 989 3 3 2967 8901
27	586950 25246 116 188568 1.11 99.91 989 -1.01426 0.65987 4.3967136382612 38.214987908606
28	612196 25929 116 188568 1.11 99.91 989 -1.25505 1.02445 4.02864656047 49.625197491595
29	638125 21616 116 188568 1.11 99.91 989 27.1866 31.0457 29833.7835 901101.99772249
30	659741 23015 116 188568 1.11 99.91 989 24.0304 3004.33 1477449.5017 2940068003.3192
31	682756 22079 116 188568 1.11 99.91 989 242.45 249.05 242314.15 59379076.752502
32	704835 19800 117 188569 1.11 99.91 989 -1 106.196 21488.6742 1624978.3511054
33	724635 18859 117 188569 1.11 99.91 989 0 2.4444 843.31799999999 2061.4065192
34	743494 17134 117 188569 1.11 99.91 989 4 4 3956 15824
35	760628 19722 117 188569 1.11 99.91 989 -0.00283113 0.000125957 -0.043966303784312 9.6812896349407e-05
36	780350 27102 117 188569 1.11 99.91 989 -0.00437036 0.00019576 -0.042459310034081 0.00013890441444735
37	807452 23064 117 188569 1.11 99.91 989 30.5554 30.56 30219.5304 923377.16656332
38	830516 22874 117 188569 1.11 99.91 989 9381.86 12400.8 10771506.29 118068463280.9
39	853390 22079 117 188569 1.11 99.91 989 242.45 242.45 239783.05 58135400.472499
40	875469 20308 118 188570 1.11 99.91 989 -1 14.9004 3722.36532 53436.200921755
41	895777 20636 118 188570 1.11 99.91 989 -0.000504983 1.03514 129.01138865166 88.995558934821
42	916413 17134 118 188570 1.11 99.91 989 5 5 4945 24725
43	933547 24063 118 188570 1.11 99.91 989 -0.393651 1.34404 24.413961565439 29.21640026086
44	957610 26536 118 188570 1.11 99.91 989 -0.518248 1.5 24.309920432217 37.227175258113
45	984146 20860 118 188570 1.11 99.91 989 29.5205 33.0931 31382.7169 997690.28095221
46	1005006 22892 118 188570 1.11 99.91 989 9375.86 12511 10789404.85 118521005183.63
47	1027898 22079 118 188570 1.11 99.91 989 242.45 245.75 240429.85 58451168.232499
48	1049977 39551 365 188635 1.241806240167 99.941802608548 988 0.099992599209 0.100011718454 98.799994528492 9.879998922334
49	1089528 26904 365 188635 1.241806240167 99.941802608548 988 1 1 988 988
50	1116432 39551 365 188635 1.241806240167 99.941802608548 988 0.099992599209 0.100011718454 98.799994528492 9.879998922334
51	1155983 26904 365 188635 1.241806240167 99.941802608548 988 1 1 988 988
52	1182887 39572 371 188641 1.241806260181 99.941802688265 988 0.099992598457 0.100011718455 98.799994588195 9.8799989342746
53	1222459 26903 371 188641 1.241806260181 99.941802688265 988 2 2 1976 3952
54	1249362 39535 377 188629 1.241806280194 99.941802514791 988 0.099992598714 0.100011717788 98.799994394707 9.879998895577
55	1288897 26875 377 188629 1.241806280194 99.941802514791 988 3 3 2964 8892
56	1315772 39507 407 188671 1.262743280195 99.962739862542 988 0.099993792809 0.100011722236 98.799994742458 9.8799989652213
57	1355279 26854 407 188671 1.262743280195 99.962739862542 988 3 3 2964 8892
58	1382133 39562 461 188719 1.281912300209 99.981921849637 988 0.09999379281 0.100011724683 98.800007709539 9.8800015587628
59	1421695 26892 461 188719 1.281912300209 99.981921849637 988 2 2 1976 3952
60	1448587 39662 485 188749 1.287383080056 99.987385455677 988 0.09999702203 0.100010734661 98.799999415649 9.879999911124
61	1488249 26881 485 188749 1.287383080056 99.987385455677 988 5 5 4940 24700
62	1515130 39662 485 188749 1.287383080056 99.987385455677 988 0.09999702203 0.100010734661 98.799999415649 9.879999911124
63	1554792 26881 485 188749 1.287383080056 99.987385455677 988 5 5 4940 24700
64	1581673 1421 1804 188752 2 100 99 0 0 0 0
65	1583094 2025 1804 188752 2 100 99 0.011241 0.01306995911 1.23617795911 0.015437655745137
66	1585119 1421 1804 188752 2 100 99 0 0 0 0
67	1586540 1421 1805 188753 2 100 99 1 1 99 99
68	1587961 2025 1805 188753 2 100 99 0.011241 0.01297 1.236046159448 0.015434249483276
69	1589986 1421 1805 188753 2 100 99 0 0 0 0
70	1591407 1421 1806 188754 2 100 99 2 2 198 396
71	1592828 2025 1806 188754 2 100 99 0.011241 0.01297 1.236046319308 0.015434253523015
72	1594853 1421 1806 188754 2 100 99 0 0 0 0
73	1596274 1421 1807 188755 2 100 99 3 3 297 891
74	1597695 2026 1807 188755 2 100 99 0.011241 0.013003479276 1.236046479276 0.015434282206281
75	1599721 1421 1807 188755 2 100 99 0 0 0 0
76	1601142 1421 1808 188756 2 100 99 4 4 396 1584
77	1602563 2023 1808 188756 2 100 99 0.005625 0.00653912609 0.61846312609 0.0038640781960209
78	1604586 1421 1808 188756 2 100 99 0 0 0 0
79	1606007 1421 1809 188757 2 100 99 5 5 495 2475
80	1607428 2023 1809 188757 2 100 99 0.005625 0.00653912609 0.61846212609 0.0038640655990209
81	1609451 1421 1809 188757 2 100 99 0 0 0 0

