version 3
run BreakRanksNoGui-1735-20240711-18:35:38-303999
attr configname BreakRanksNoGui
attr datetime 20240711-18:35:38
attr datetimef 20240711-183538
attr experiment BreakRanksNoGui
attr inifile omnetpp.ini
attr iterationvars "$nCars=6, $platoonSize=4, $nLanes=1, $ploegH=0.5, $controller=1, $headway=0.1, $leaderHeadway=1.2, $leaderSpeed=110, $breakRanksSafetyDistance=20, $minSpeed=100, $maxSpeed=120, $beaconInterval=0.1, $priority=4, $packetSize=200, $sController=\"CACC\", $0=2, $1=0"
attr iterationvarsd nCars=6/platoonSize=4/nLanes=1/ploegH=0.5/controller=1/headway=0.1/leaderHeadway=1.2/leaderSpeed=110/breakRanksSafetyDistance=20/minSpeed=100/maxSpeed=120/beaconInterval=0.1/priority=4/packetSize=200/sController=CACC/2/0
attr iterationvarsf nCars=6,platoonSize=4,nLanes=1,ploegH=0.5,controller=1,headway=0.1,leaderHeadway=1.2,leaderSpeed=110,breakRanksSafetyDistance=20,minSpeed=100,maxSpeed=120,beaconInterval=0.1,priority=4,packetSize=200,sController=CACC,2,0-
attr measurement "$nCars=6, $platoonSize=4, $nLanes=1, $ploegH=0.5, $controller=1, $headway=0.1, $leaderHeadway=1.2, $leaderSpeed=110, $breakRanksSafetyDistance=20, $minSpeed=100, $maxSpeed=120, $beaconInterval=0.1, $priority=4, $packetSize=200, $sController=\"CACC\", $0=2, $1=0"
attr network Highway
attr processid 303999
attr repetition 5
attr replication #5
attr resultdir results
attr runnumber 1735
attr seedset 5
itervar beaconInterval 0.1
itervar breakRanksSafetyDistance 20
itervar controller 1
itervar headway 0.1
itervar leaderHeadway 1.2
itervar leaderSpeed 110
itervar maxSpeed 120
itervar minSpeed 100
itervar nCars 6
itervar nLanes 1
itervar packetSize 200
itervar platoonSize 4
itervar ploegH 0.5
itervar priority 4
itervar sController "\"CACC\""
config image-path ../../../veins/images
config repeat 10
config extends BreakRanks
config *.manager.command "\"sumo\""
config *.manager.ignoreGuiCommands true
config output-vector-file "results/BreakRanks_1_0.1_110_20_4 /result_5.vec"
config output-scalar-file "results/BreakRanks_1_0.1_110_20_4 /result_5.sca"
config extends Platooning
config *.node[*].scenario_type "\"BreakRanksScenario\""
config *.manager.command "\"sumo-gui\""
config *.node[*].scenario_type "\"SimpleScenario\""
config cmdenv-express-mode true
config cmdenv-autoflush true
config cmdenv-status-frequency 15s
config num-rngs 6
config network Highway
config debug-on-errors true
config print-undisposed true
config *.playgroundSizeX 65000m
config *.playgroundSizeY 25000m
config *.playgroundSizeZ 50m
config sim-time-limit "100 s"
config *.annotations.draw false
config *.obstacles.debug false
config *.world.useTorus false
config *.world.use2D false
config *.manager.updateInterval 0.01s
config *.manager.host "\"localhost\""
config *.manager.moduleType "\"org.car2x.plexe.PlatoonCar\""
config *.manager.moduleName "\"node\""
config *.manager.moduleDisplayString "\"\""
config *.manager.autoShutdown true
config *.manager.margin 25
config *.connectionManager.sendDirect true
config *.connectionManager.maxInterfDist 2600m
config *.connectionManager.drawMaxIntfDist false
config *.**.nic.mac1609_4.useServiceChannel false
config *.**.nic.mac1609_4.txPower 100mW
config *.**.nic.mac1609_4.bitrate 6Mbps
config *.**.nic.mac1609_4.useAcks true
config *.**.nic.mac1609_4.ackErrorRate 0.0
config *.**.nic.mac1609_4.frameErrorRate 0.0
config *.**.nic.phy80211p.minPowerLevel -94dBm
config *.**.nic.phy80211p.maxTXPower 100mW
config *.**.nic.phy80211p.useNoiseFloor true
config *.**.nic.phy80211p.noiseFloor -95dBm
config *.**.nic.phy80211p.decider "xmldoc(\"config.xml\")"
config *.**.nic.phy80211p.analogueModels "xmldoc(\"config.xml\")"
config *.**.nic.phy80211p.usePropagationDelay true
config *.node[*].mobility.x 0
config *.node[*].mobility.y 0
config *.node[*].mobility.z 1.895
config seed-set 5
config **.seed 5
config *.node[*].prot.rng-0 2
config *.node[*].appl.rng-0 3
config *.node[*].scenario.rng-0 4
config **.traffic.rng-0 5
config *.manager.configFile "\"./sumocfg/freeway.sumo.cfg\""
config *.manager.launchConfig "xmldoc(\"./sumocfg/freeway.launchd.xml\")"
config **.numberOfCars 6
config **.numberOfCarsPerPlatoon 4
config **.numberOfLanes 1
config *.node[*].helper_type "\"PositionHelper\""
config *.node[*].scenario.caccC1 0.5
config *.node[*].scenario.caccXi 1
config *.node[*].scenario.caccOmegaN "0.2 Hz"
config *.node[*].scenario.caccSpacing "2 m"
config *.node[*].scenario.engineTau "0.5 s"
config *.node[*].scenario.ploegH 0.5s
config *.node[*].scenario.ploegKp 0.2
config *.node[*].scenario.ploegKd 0.7
config *.node[*].scenario.useRealisticEngine false
config *.node[*].scenario.useControllerAcceleration true
config *.node[*].scenario.nLanes 1
config **.numericController 1
config **.headway 0.1s
config *.node[*].scenario.accHeadway 0.1s
config *.node[*].scenario.leaderHeadway 1.2s
config *.node[*].scenario.leaderSpeed 110kmph
config *.node[*].appl_type "\"SimplePlatooningApp\""
config *.node[*].appl.*.scalar-recording true
config *.node[*].appl.*.vector-recording true
config *.node[0].appl.breakRanksSafetyDistance 20m
config *.node[*].appl.minSpeed 100kmph
config *.node[*].appl.maxSpeed 120kmph
config *.node[*].protocol_type "\"SimplePlatooningBeaconing\""
config *.node[*].prot.*.scalar-recording true
config *.node[*].prot.*.vector-recording true
config *.node[*].prot.beaconingInterval 0.1s
config *.node[*].prot.priority 4
config *.node[*].prot.packetSize 200
config **.traffic_type "\"PlatoonsTrafficManager\""
config **.traffic.platoonInsertTime "1 s"
config **.traffic.platoonInsertSpeed 110kmph
config **.traffic.nCars 6
config **.traffic.platoonSize 4
config **.traffic.nLanes 1
config **.traffic.platooningVType "\"vtypeauto\""
config **.traffic.controller "\"CACC\""
config **.traffic.platoonInsertDistance 2m
config **.traffic.platoonInsertHeadway 0s
config **.traffic.platoonLeaderHeadway 1.2s
config **.scalar-recording false
config **.vector-recording false

vector 0 Highway.node[0].appl distance ETV
vector 1 Highway.node[0].appl relativeSpeed ETV
vector 2 Highway.node[0].appl nodeId ETV
vector 3 Highway.node[0].appl acceleration ETV
vector 4 Highway.node[0].appl controllerAcceleration ETV
vector 5 Highway.node[0].appl speed ETV
vector 6 Highway.node[0].appl posx ETV
vector 7 Highway.node[0].appl posy ETV
vector 8 Highway.node[1].appl distance ETV
vector 9 Highway.node[1].appl relativeSpeed ETV
vector 10 Highway.node[1].appl nodeId ETV
vector 11 Highway.node[1].appl acceleration ETV
vector 12 Highway.node[1].appl controllerAcceleration ETV
vector 13 Highway.node[1].appl speed ETV
vector 14 Highway.node[1].appl posx ETV
vector 15 Highway.node[1].appl posy ETV
vector 16 Highway.node[2].appl distance ETV
vector 17 Highway.node[2].appl relativeSpeed ETV
vector 18 Highway.node[2].appl nodeId ETV
vector 19 Highway.node[2].appl acceleration ETV
vector 20 Highway.node[2].appl controllerAcceleration ETV
vector 21 Highway.node[2].appl speed ETV
vector 22 Highway.node[2].appl posx ETV
vector 23 Highway.node[2].appl posy ETV
vector 24 Highway.node[3].appl distance ETV
vector 25 Highway.node[3].appl relativeSpeed ETV
vector 26 Highway.node[3].appl nodeId ETV
vector 27 Highway.node[3].appl acceleration ETV
vector 28 Highway.node[3].appl controllerAcceleration ETV
vector 29 Highway.node[3].appl speed ETV
vector 30 Highway.node[3].appl posx ETV
vector 31 Highway.node[3].appl posy ETV
vector 32 Highway.node[4].appl distance ETV
vector 33 Highway.node[4].appl relativeSpeed ETV
vector 34 Highway.node[4].appl nodeId ETV
vector 35 Highway.node[4].appl acceleration ETV
vector 36 Highway.node[4].appl controllerAcceleration ETV
vector 37 Highway.node[4].appl speed ETV
vector 38 Highway.node[4].appl posx ETV
vector 39 Highway.node[4].appl posy ETV
vector 40 Highway.node[5].appl distance ETV
vector 41 Highway.node[5].appl relativeSpeed ETV
vector 42 Highway.node[5].appl nodeId ETV
vector 43 Highway.node[5].appl acceleration ETV
vector 44 Highway.node[5].appl controllerAcceleration ETV
vector 45 Highway.node[5].appl speed ETV
vector 46 Highway.node[5].appl posx ETV
vector 47 Highway.node[5].appl posy ETV
vector 48 Highway.node[2].prot frontDelay ETV
vector 49 Highway.node[2].prot frontDelayId ETV
vector 50 Highway.node[3].prot frontDelay ETV
vector 51 Highway.node[3].prot frontDelayId ETV
vector 52 Highway.node[5].prot leaderDelay ETV
vector 53 Highway.node[5].prot leaderDelayId ETV
vector 54 Highway.node[5].prot frontDelay ETV
vector 55 Highway.node[5].prot frontDelayId ETV
vector 56 Highway.node[1].prot leaderDelay ETV
vector 57 Highway.node[1].prot leaderDelayId ETV
vector 58 Highway.node[1].prot frontDelay ETV
vector 59 Highway.node[1].prot frontDelayId ETV
vector 60 Highway.node[2].prot leaderDelay ETV
vector 61 Highway.node[2].prot leaderDelayId ETV
vector 62 Highway.node[3].prot leaderDelay ETV
vector 63 Highway.node[3].prot leaderDelayId ETV
vector 64 Highway.node[0].prot nodeId ETV
vector 65 Highway.node[0].prot busyTime ETV
vector 66 Highway.node[0].prot collisions ETV
vector 67 Highway.node[1].prot nodeId ETV
vector 68 Highway.node[1].prot busyTime ETV
vector 69 Highway.node[1].prot collisions ETV
vector 70 Highway.node[2].prot nodeId ETV
vector 71 Highway.node[2].prot busyTime ETV
vector 72 Highway.node[2].prot collisions ETV
vector 73 Highway.node[3].prot nodeId ETV
vector 74 Highway.node[3].prot busyTime ETV
vector 75 Highway.node[3].prot collisions ETV
vector 76 Highway.node[4].prot nodeId ETV
vector 77 Highway.node[4].prot busyTime ETV
vector 78 Highway.node[4].prot collisions ETV
vector 79 Highway.node[5].prot nodeId ETV
vector 80 Highway.node[5].prot busyTime ETV
vector 81 Highway.node[5].prot collisions ETV
0	113	1.11	9329.83
0	301	1.21	9329.83
0	489	1.31	9329.83
0	677	1.41	9329.83
0	865	1.51	9329.83
0	1053	1.61	9329.83
0	1241	1.71	9329.83
0	1429	1.81	9329.83
0	1617	1.91	9329.83
0	1811	2.01	9329.83
0	1999	2.11	9329.83
0	2187	2.21	-1
0	2375	2.31	-1
0	2563	2.41	-1
0	2751	2.51	-1
0	2939	2.61	-1
0	3127	2.71	-1
0	3315	2.81	-1
0	3503	2.91	-1
0	3697	3.01	-1
0	3885	3.11	-1
0	4073	3.21	-1
0	4261	3.31	-1
0	4449	3.41	-1
0	4637	3.51	-1
0	4825	3.61	-1
0	5013	3.71	-1
0	5201	3.81	-1
0	5389	3.91	-1
0	5583	4.01	-1
0	5771	4.11	-1
0	5959	4.21	-1
0	6147	4.31	-1
0	6335	4.41	-1
0	6523	4.51	-1
0	6711	4.61	-1
0	6899	4.71	-1
0	7087	4.81	-1
0	7275	4.91	-1
0	7469	5.01	-1
0	7657	5.11	-1
0	7845	5.21	-1
0	8033	5.31	-1
0	8221	5.41	-1
0	8409	5.51	-1
0	8597	5.61	-1
0	8785	5.71	-1
0	8973	5.81	-1
0	9161	5.91	-1
0	9355	6.01	-1
0	9543	6.11	-1
0	9731	6.21	-1
0	9919	6.31	-1
0	10107	6.41	-1
0	10295	6.51	-1
0	10483	6.61	-1
0	10671	6.71	-1
0	10859	6.81	-1
0	11047	6.91	-1
0	11241	7.01	-1
0	11429	7.11	-1
0	11617	7.21	-1
0	11805	7.31	-1
0	11993	7.41	-1
0	12181	7.51	-1
0	12369	7.61	-1
0	12557	7.71	-1
0	12745	7.81	-1
0	12933	7.91	-1
0	13127	8.01	-1
0	13315	8.11	-1
0	13503	8.21	-1
0	13691	8.31	-1
0	13879	8.41	-1
0	14067	8.51	-1
0	14255	8.61	-1
0	14443	8.71	-1
0	14631	8.81	-1
0	14819	8.91	-1
0	15013	9.01	-1
0	15201	9.11	-1
0	15389	9.21	-1
0	15577	9.31	-1
0	15765	9.41	-1
0	15953	9.51	-1
0	16141	9.61	-1
0	16329	9.71	-1
0	16517	9.81	-1
0	16705	9.91	-1
0	16957	10.01	-1
0	17149	10.11	-1
0	17341	10.21	-1
0	17533	10.31	-1
0	17725	10.41	-1
0	17917	10.51	-1
0	18109	10.61	-1
0	18301	10.71	-1
0	18493	10.81	-1
0	18685	10.91	-1
0	18883	11.01	-1
0	19075	11.11	-1
0	19267	11.21	-1
0	19459	11.31	-1
0	19651	11.41	-1
0	19843	11.51	-1
0	20035	11.61	-1
0	20227	11.71	-1
0	20419	11.81	-1
0	20611	11.91	-1
0	20809	12.01	-1
0	21001	12.11	-1
0	21193	12.21	-1
0	21385	12.31	-1
0	21577	12.41	-1
0	21769	12.51	-1
0	21961	12.61	-1
0	22153	12.71	-1
0	22345	12.81	-1
0	22537	12.91	-1
0	22735	13.01	-1
0	22927	13.11	-1
0	23119	13.21	-1
0	23311	13.31	-1
0	23503	13.41	-1
0	23695	13.51	-1
0	23887	13.61	-1
0	24079	13.71	-1
0	24271	13.81	-1
0	24463	13.91	-1
0	24661	14.01	-1
0	24853	14.11	-1
0	25045	14.21	-1
0	25237	14.31	-1
0	25429	14.41	-1
0	25621	14.51	-1
0	25813	14.61	-1
0	26005	14.71	-1
0	26197	14.81	-1
0	26389	14.91	-1
0	26587	15.01	-1
0	26779	15.11	-1
0	26971	15.21	-1
0	27163	15.31	-1
0	27355	15.41	-1
0	27547	15.51	-1
0	27739	15.61	-1
0	27931	15.71	-1
0	28123	15.81	-1
0	28315	15.91	-1
0	28513	16.01	-1
0	28705	16.11	-1
0	28897	16.21	-1
0	29089	16.31	-1
0	29281	16.41	-1
0	29473	16.51	-1
0	29665	16.61	-1
0	29857	16.71	-1
0	30049	16.81	-1
0	30241	16.91	-1
0	30439	17.01	-1
0	30631	17.11	-1
0	30823	17.21	-1
0	31015	17.31	-1
0	31207	17.41	-1
0	31399	17.51	-1
0	31591	17.61	-1
0	31783	17.71	-1
0	31975	17.81	-1
0	32167	17.91	-1
0	32365	18.01	-1
0	32557	18.11	-1
0	32749	18.21	-1
0	32941	18.31	-1
0	33133	18.41	-1
0	33325	18.51	-1
0	33517	18.61	-1
0	33709	18.71	-1
0	33901	18.81	-1
0	34093	18.91	-1
0	34291	19.01	-1
0	34483	19.11	-1
0	34675	19.21	-1
0	34867	19.31	-1
0	35059	19.41	-1
0	35251	19.51	-1
0	35443	19.61	-1
0	35635	19.71	-1
0	35827	19.81	-1
0	36019	19.91	-1
0	36217	20.01	-1
0	36409	20.11	-1
0	36601	20.21	-1
0	36793	20.31	-1
0	36985	20.41	-1
0	37177	20.51	-1
0	37369	20.61	-1
0	37561	20.71	-1
0	37753	20.81	-1
0	37945	20.91	-1
0	38143	21.01	-1
0	38335	21.11	-1
0	38527	21.21	-1
0	38719	21.31	-1
0	38911	21.41	-1
0	39103	21.51	-1
0	39295	21.61	-1
0	39487	21.71	-1
0	39679	21.81	-1
0	39871	21.91	-1
0	40069	22.01	-1
0	40261	22.11	-1
0	40453	22.21	-1
0	40645	22.31	-1
0	40837	22.41	-1
0	41029	22.51	-1
0	41221	22.61	-1
0	41413	22.71	-1
0	41605	22.81	-1
0	41797	22.91	-1
0	41995	23.01	-1
0	42187	23.11	-1
0	42379	23.21	-1
0	42571	23.31	-1
0	42763	23.41	-1
0	42955	23.51	-1
0	43147	23.61	-1
0	43339	23.71	-1
0	43531	23.81	-1
0	43723	23.91	-1
0	43921	24.01	-1
0	44113	24.11	-1
0	44305	24.21	-1
0	44497	24.31	-1
0	44689	24.41	-1
0	44881	24.51	-1
0	45073	24.61	-1
0	45265	24.71	-1
0	45457	24.81	-1
0	45649	24.91	-1
0	45847	25.01	-1
0	46039	25.11	-1
0	46231	25.21	-1
0	46423	25.31	-1
0	46615	25.41	-1
0	46807	25.51	-1
0	46999	25.61	-1
0	47191	25.71	-1
0	47383	25.81	-1
0	47575	25.91	-1
0	47773	26.01	-1
0	47965	26.11	-1
0	48157	26.21	-1
0	48349	26.31	-1
0	48541	26.41	-1
0	48733	26.51	-1
0	48925	26.61	-1
0	49117	26.71	-1
0	49309	26.81	-1
0	49501	26.91	-1
0	49699	27.01	-1
0	49891	27.11	-1
0	50083	27.21	-1
0	50275	27.31	-1
0	50467	27.41	-1
0	50659	27.51	-1
0	50851	27.61	-1
0	51043	27.71	-1
0	51235	27.81	-1
0	51427	27.91	-1
0	51625	28.01	-1
0	51817	28.11	-1
0	52009	28.21	-1
0	52201	28.31	-1
0	52393	28.41	-1
0	52585	28.51	-1
0	52777	28.61	-1
0	52969	28.71	-1
0	53161	28.81	-1
0	53353	28.91	-1
0	53551	29.01	-1
0	53743	29.11	-1
0	53935	29.21	-1
0	54127	29.31	-1
0	54319	29.41	-1
0	54511	29.51	-1
0	54703	29.61	-1
0	54895	29.71	-1
0	55087	29.81	-1
0	55279	29.91	-1
0	55477	30.01	-1
0	55669	30.11	-1
0	55861	30.21	-1
0	56053	30.31	-1
0	56245	30.41	-1
0	56437	30.51	-1
0	56629	30.61	-1
0	56821	30.71	-1
0	57013	30.81	-1
0	57205	30.91	-1
0	57403	31.01	-1
0	57595	31.11	-1
0	57787	31.21	-1
0	57979	31.31	-1
0	58171	31.41	-1
0	58363	31.51	-1
0	58555	31.61	-1
0	58747	31.71	-1
0	58939	31.81	-1
0	59131	31.91	-1
0	59329	32.01	-1
0	59521	32.11	-1
0	59713	32.21	-1
0	59905	32.31	-1
0	60097	32.41	-1
0	60289	32.51	-1
0	60481	32.61	-1
0	60673	32.71	-1
0	60865	32.81	-1
0	61057	32.91	-1
0	61255	33.01	-1
0	61447	33.11	-1
0	61639	33.21	-1
0	61831	33.31	-1
0	62023	33.41	-1
0	62215	33.51	-1
0	62407	33.61	-1
0	62599	33.71	-1
0	62791	33.81	-1
0	62983	33.91	-1
0	63181	34.01	-1
0	63373	34.11	-1
0	63565	34.21	-1
0	63757	34.31	-1
0	63949	34.41	-1
0	64141	34.51	-1
0	64333	34.61	-1
0	64525	34.71	-1
0	64717	34.81	-1
0	64909	34.91	-1
0	65107	35.01	-1
0	65299	35.11	-1
0	65491	35.21	-1
0	65683	35.31	-1
0	65875	35.41	-1
0	66067	35.51	-1
0	66259	35.61	-1
0	66451	35.71	-1
0	66643	35.81	-1
0	66835	35.91	-1
0	67033	36.01	-1
0	67225	36.11	-1
0	67417	36.21	-1
0	67609	36.31	-1
0	67801	36.41	-1
0	67993	36.51	-1
0	68185	36.61	-1
0	68377	36.71	-1
0	68569	36.81	-1
0	68761	36.91	-1
0	68959	37.01	-1
0	69151	37.11	-1
0	69343	37.21	-1
0	69535	37.31	-1
0	69727	37.41	-1
0	69919	37.51	-1
0	70111	37.61	-1
0	70303	37.71	-1
0	70495	37.81	-1
0	70687	37.91	-1
0	70885	38.01	-1
0	71077	38.11	-1
0	71269	38.21	-1
0	71461	38.31	-1
0	71653	38.41	-1
0	71845	38.51	-1
0	72037	38.61	-1
0	72229	38.71	-1
0	72421	38.81	-1
0	72613	38.91	-1
0	72811	39.01	-1
0	73003	39.11	-1
0	73195	39.21	-1
0	73387	39.31	-1
0	73579	39.41	-1
0	73771	39.51	-1
0	73963	39.61	-1
0	74155	39.71	-1
0	74347	39.81	-1
0	74539	39.91	-1
0	74737	40.01	-1
0	74929	40.11	-1
0	75121	40.21	-1
0	75313	40.31	-1
0	75505	40.41	-1
0	75697	40.51	-1
0	75889	40.61	-1
0	76081	40.71	-1
0	76273	40.81	-1
0	76465	40.91	-1
0	76663	41.01	-1
0	76855	41.11	-1
0	77047	41.21	-1
0	77239	41.31	-1
0	77431	41.41	-1
0	77623	41.51	-1
0	77815	41.61	-1
0	78007	41.71	-1
0	78199	41.81	-1
0	78391	41.91	-1
0	78589	42.01	-1
0	78781	42.11	-1
0	78973	42.21	-1
0	79165	42.31	-1
0	79357	42.41	-1
0	79549	42.51	-1
0	79741	42.61	-1
0	79933	42.71	-1
0	80125	42.81	-1
0	80317	42.91	-1
0	80515	43.01	-1
0	80707	43.11	-1
0	80899	43.21	-1
0	81091	43.31	-1
0	81283	43.41	-1
0	81475	43.51	-1
0	81667	43.61	-1
0	81859	43.71	-1
0	82051	43.81	-1
0	82243	43.91	-1
0	82441	44.01	-1
0	82633	44.11	-1
0	82825	44.21	-1
0	83017	44.31	-1
0	83209	44.41	-1
0	83401	44.51	-1
0	83593	44.61	-1
0	83785	44.71	-1
0	83977	44.81	-1
0	84169	44.91	-1
0	84367	45.01	-1
0	84559	45.11	-1
0	84751	45.21	-1
0	84943	45.31	-1
0	85135	45.41	-1
0	85327	45.51	-1
0	85519	45.61	-1
0	85711	45.71	-1
0	85969	45.81	-1
0	86160	45.91	-1
0	86357	46.01	-1
0	86548	46.11	-1
0	86739	46.21	-1
0	86930	46.31	-1
0	87121	46.41	-1
0	87312	46.51	-1
0	87503	46.61	-1
0	87694	46.71	-1
0	87885	46.81	-1
0	88076	46.91	-1
0	88273	47.01	-1
0	88464	47.11	-1
0	88655	47.21	-1
0	88846	47.31	-1
0	89037	47.41	-1
0	89228	47.51	-1
0	89419	47.61	-1
0	89610	47.71	-1
0	89801	47.81	-1
0	90045	47.91	-1
0	90241	48.01	-1
0	90431	48.11	-1
0	90621	48.21	-1
0	90811	48.31	-1
0	91001	48.41	-1
0	91191	48.51	-1
0	91381	48.61	-1
0	91571	48.71	-1
0	91761	48.81	-1
0	91951	48.91	-1
0	92147	49.01	-1
0	92337	49.11	-1
0	92527	49.21	-1
0	92717	49.31	-1
0	92907	49.41	-1
0	93097	49.51	-1
0	93287	49.61	-1
0	93477	49.71	-1
0	93667	49.81	-1
0	93857	49.91	-1
0	94053	50.01	-1
0	94243	50.11	-1
0	94433	50.21	-1
0	94623	50.31	-1
0	94813	50.41	-1
0	95003	50.51	-1
0	95193	50.61	-1
0	95383	50.71	-1
0	95573	50.81	-1
0	95763	50.91	-1
0	95959	51.01	-1
0	96149	51.11	-1
0	96339	51.21	-1
0	96529	51.31	-1
0	96719	51.41	-1
0	96909	51.51	-1
0	97099	51.61	-1
0	97289	51.71	-1
0	97479	51.81	-1
0	97669	51.91	-1
0	97865	52.01	-1
0	98055	52.11	-1
0	98245	52.21	-1
0	98435	52.31	-1
0	98625	52.41	-1
0	98815	52.51	-1
0	99005	52.61	-1
0	99195	52.71	-1
0	99385	52.81	-1
0	99575	52.91	-1
0	99771	53.01	-1
0	99961	53.11	-1
0	100151	53.21	-1
0	100341	53.31	-1
0	100531	53.41	-1
0	100721	53.51	-1
0	100911	53.61	-1
0	101101	53.71	-1
0	101291	53.81	-1
0	101481	53.91	-1
0	101677	54.01	-1
0	101867	54.11	-1
0	102110	54.21	-1
0	102299	54.31	-1
0	102488	54.41	-1
0	102677	54.51	-1
0	102866	54.61	-1
0	103055	54.71	-1
0	103244	54.81	-1
0	103433	54.91	-1
0	103628	55.01	-1
0	103817	55.11	-1
0	104006	55.21	-1
0	104195	55.31	-1
0	104384	55.41	-1
0	104573	55.51	-1
0	104762	55.61	-1
0	104951	55.71	-1
0	105140	55.81	-1
0	105329	55.91	-1
0	105524	56.01	-1
0	105713	56.11	-1
0	105902	56.21	-1
0	106091	56.31	-1
0	106280	56.41	-1
0	106469	56.51	-1
0	106658	56.61	-1
0	106847	56.71	-1
0	107036	56.81	-1
0	107225	56.91	-1
0	107420	57.01	-1
0	107609	57.11	-1
0	107798	57.21	-1
0	107987	57.31	-1
0	108176	57.41	-1
0	108365	57.51	-1
0	108554	57.61	-1
0	108743	57.71	-1
0	108932	57.81	-1
0	109121	57.91	-1
0	109316	58.01	-1
0	109505	58.11	-1
0	109694	58.21	-1
0	109883	58.31	-1
0	110072	58.41	-1
0	110261	58.51	-1
0	110450	58.61	-1
0	110639	58.71	-1
0	110828	58.81	-1
0	111017	58.91	-1
0	111212	59.01	-1
0	111401	59.11	-1
0	111590	59.21	-1
0	111779	59.31	-1
0	111968	59.41	-1
0	112157	59.51	-1
0	112346	59.61	-1
0	112535	59.71	-1
0	112936	59.81	-1
0	113124	59.91	-1
0	113318	60.01	-1
0	113506	60.11	-1
0	113694	60.21	-1
0	113882	60.31	-1
0	114070	60.41	-1
0	114258	60.51	-1
0	114446	60.61	-1
0	114634	60.71	-1
0	114822	60.81	-1
0	115010	60.91	-1
0	115204	61.01	-1
0	115392	61.11	-1
0	115580	61.21	-1
0	115768	61.31	-1
0	115956	61.41	-1
0	116144	61.51	-1
0	116332	61.61	-1
0	116520	61.71	-1
0	116708	61.81	-1
0	116896	61.91	-1
0	117090	62.01	-1
0	117278	62.11	-1
0	117466	62.21	-1
0	117654	62.31	-1
0	117842	62.41	-1
0	118030	62.51	-1
0	118218	62.61	-1
0	118406	62.71	-1
0	118594	62.81	-1
0	118782	62.91	-1
0	118976	63.01	-1
0	119164	63.11	-1
0	119352	63.21	-1
0	119540	63.31	-1
0	119728	63.41	-1
0	119916	63.51	-1
0	120104	63.61	-1
0	120292	63.71	-1
0	120480	63.81	-1
0	120668	63.91	-1
0	120862	64.01	-1
0	121050	64.11	-1
0	121238	64.21	-1
0	121426	64.31	-1
0	121614	64.41	-1
0	121802	64.51	-1
0	121990	64.61	-1
0	122178	64.71	-1
0	122366	64.81	-1
0	122554	64.91	-1
0	122748	65.01	-1
0	122936	65.11	-1
0	123124	65.21	-1
0	123312	65.31	-1
0	123500	65.41	-1
0	123688	65.51	-1
0	123876	65.61	-1
0	124064	65.71	-1
0	124252	65.81	-1
0	124440	65.91	-1
0	124634	66.01	-1
0	124822	66.11	-1
0	125010	66.21	-1
0	125198	66.31	-1
0	125386	66.41	-1
0	125574	66.51	-1
0	125762	66.61	-1
0	125950	66.71	-1
0	126138	66.81	-1
0	126326	66.91	-1
0	126520	67.01	-1
0	126708	67.11	-1
0	126896	67.21	-1
0	127084	67.31	-1
0	127272	67.41	-1
0	127460	67.51	-1
0	127648	67.61	-1
0	127836	67.71	-1
0	128024	67.81	-1
0	128212	67.91	-1
0	128406	68.01	-1
0	128594	68.11	-1
0	128782	68.21	-1
0	128970	68.31	-1
0	129158	68.41	-1
0	129346	68.51	-1
0	129534	68.61	-1
0	129722	68.71	-1
0	129910	68.81	-1
0	130098	68.91	-1
0	130292	69.01	-1
0	130480	69.11	-1
0	130668	69.21	-1
0	130856	69.31	-1
0	131044	69.41	-1
0	131232	69.51	-1
0	131420	69.61	-1
0	131608	69.71	-1
0	131796	69.81	-1
0	131984	69.91	-1
0	132178	70.01	-1
0	132366	70.11	-1
0	132554	70.21	-1
0	132742	70.31	-1
0	132930	70.41	-1
0	133118	70.51	-1
0	133306	70.61	-1
0	133494	70.71	-1
0	133682	70.81	-1
0	133870	70.91	-1
0	134064	71.01	-1
0	134252	71.11	-1
0	134440	71.21	-1
0	134628	71.31	-1
0	134816	71.41	-1
0	135004	71.51	-1
0	135192	71.61	-1
0	135380	71.71	-1
0	135568	71.81	-1
0	135756	71.91	-1
0	135950	72.01	-1
0	136138	72.11	-1
0	136326	72.21	-1
0	136514	72.31	-1
0	136702	72.41	-1
0	136890	72.51	-1
0	137078	72.61	-1
0	137266	72.71	-1
0	137454	72.81	-1
0	137642	72.91	-1
0	137836	73.01	-1
0	138024	73.11	-1
0	138212	73.21	-1
0	138400	73.31	-1
0	138588	73.41	-1
0	138776	73.51	-1
0	138964	73.61	-1
0	139152	73.71	-1
0	139340	73.81	-1
0	139528	73.91	-1
0	139722	74.01	-1
0	139910	74.11	-1
0	140098	74.21	-1
0	140286	74.31	-1
0	140474	74.41	-1
0	140662	74.51	-1
0	140850	74.61	-1
0	141038	74.71	-1
0	141226	74.81	-1
0	141414	74.91	-1
0	141608	75.01	-1
0	141796	75.11	-1
0	141984	75.21	-1
0	142172	75.31	-1
0	142360	75.41	-1
0	142548	75.51	-1
0	142736	75.61	-1
0	142924	75.71	-1
0	143112	75.81	-1
0	143300	75.91	-1
0	143494	76.01	-1
0	143682	76.11	-1
0	143870	76.21	-1
0	144058	76.31	-1
0	144246	76.41	-1
0	144434	76.51	-1
0	144622	76.61	-1
0	144810	76.71	-1
0	144998	76.81	-1
0	145186	76.91	-1
0	145380	77.01	-1
0	145568	77.11	-1
0	145756	77.21	-1
0	145944	77.31	-1
0	146132	77.41	-1
0	146320	77.51	-1
0	146508	77.61	-1
0	146696	77.71	-1
0	146884	77.81	-1
0	147072	77.91	-1
0	147266	78.01	-1
0	147454	78.11	-1
0	147642	78.21	-1
0	147830	78.31	-1
0	148018	78.41	-1
0	148206	78.51	-1
0	148394	78.61	-1
0	148582	78.71	-1
0	148770	78.81	-1
0	148958	78.91	-1
0	149152	79.01	-1
0	149340	79.11	-1
0	149528	79.21	-1
0	149716	79.31	-1
0	149904	79.41	-1
0	150092	79.51	-1
0	150280	79.61	-1
0	150468	79.71	-1
0	150656	79.81	-1
0	150844	79.91	-1
0	151038	80.01	-1
0	151226	80.11	-1
0	151414	80.21	-1
0	151602	80.31	-1
0	151790	80.41	-1
0	151978	80.51	-1
0	152166	80.61	-1
0	152354	80.71	-1
0	152542	80.81	-1
0	152730	80.91	-1
0	152924	81.01	-1
0	153112	81.11	-1
0	153300	81.21	-1
0	153488	81.31	-1
0	153676	81.41	-1
0	153864	81.51	-1
0	154052	81.61	-1
0	154240	81.71	-1
0	154428	81.81	-1
0	154616	81.91	-1
0	154810	82.01	-1
0	154998	82.11	-1
0	155186	82.21	-1
0	155374	82.31	-1
0	155562	82.41	-1
0	155750	82.51	-1
0	155938	82.61	-1
0	156126	82.71	-1
0	156314	82.81	-1
0	156502	82.91	-1
0	156696	83.01	-1
0	156884	83.11	-1
0	157072	83.21	-1
0	157260	83.31	-1
0	157448	83.41	-1
0	157636	83.51	-1
0	157824	83.61	-1
0	158012	83.71	-1
0	158200	83.81	-1
0	158388	83.91	-1
0	158582	84.01	-1
0	158770	84.11	-1
0	158958	84.21	-1
0	159146	84.31	-1
0	159334	84.41	-1
0	159522	84.51	-1
0	159710	84.61	-1
0	159898	84.71	-1
0	160086	84.81	-1
0	160274	84.91	-1
0	160468	85.01	-1
0	160656	85.11	-1
0	160844	85.21	-1
0	161032	85.31	-1
0	161220	85.41	-1
0	161408	85.51	-1
0	161596	85.61	-1
0	161784	85.71	-1
0	161972	85.81	-1
0	162160	85.91	-1
0	162354	86.01	-1
0	162542	86.11	-1
0	162730	86.21	-1
0	162918	86.31	-1
0	163106	86.41	-1
0	163294	86.51	-1
0	163482	86.61	-1
0	163670	86.71	-1
0	163858	86.81	-1
0	164046	86.91	-1
0	164240	87.01	-1
0	164428	87.11	-1
0	164616	87.21	-1
0	164804	87.31	-1
0	164992	87.41	-1
0	165180	87.51	-1
0	165368	87.61	-1
0	165556	87.71	-1
0	165744	87.81	-1
0	165932	87.91	-1
0	166126	88.01	-1
0	166314	88.11	-1
0	166502	88.21	-1
0	166690	88.31	-1
0	166878	88.41	-1
0	167066	88.51	-1
0	167254	88.61	-1
0	167442	88.71	-1
0	167630	88.81	-1
0	167818	88.91	-1
0	168012	89.01	-1
0	168200	89.11	-1
0	168388	89.21	-1
0	168576	89.31	-1
0	168764	89.41	-1
0	168952	89.51	-1
0	169140	89.61	-1
0	169328	89.71	-1
0	169516	89.81	-1
0	169704	89.91	-1
0	169898	90.01	-1
0	170086	90.11	-1
0	170274	90.21	-1
0	170462	90.31	-1
0	170650	90.41	-1
0	170838	90.51	-1
0	171026	90.61	-1
0	171214	90.71	-1
0	171402	90.81	-1
0	171590	90.91	-1
0	171784	91.01	-1
0	171972	91.11	-1
0	172160	91.21	-1
0	172348	91.31	-1
0	172536	91.41	-1
0	172724	91.51	-1
0	172912	91.61	-1
0	173100	91.71	-1
0	173288	91.81	-1
0	173476	91.91	-1
0	173670	92.01	-1
0	173858	92.11	-1
0	174046	92.21	-1
0	174234	92.31	-1
0	174422	92.41	-1
0	174610	92.51	-1
0	174798	92.61	-1
0	174986	92.71	-1
0	175174	92.81	-1
0	175362	92.91	-1
0	175556	93.01	-1
0	175744	93.11	-1
0	175932	93.21	-1
0	176120	93.31	-1
0	176308	93.41	-1
0	176496	93.51	-1
0	176684	93.61	-1
0	176872	93.71	-1
0	177060	93.81	-1
0	177248	93.91	-1
0	177442	94.01	-1
0	177630	94.11	-1
0	177818	94.21	-1
0	178006	94.31	-1
0	178194	94.41	-1
0	178382	94.51	-1
0	178570	94.61	-1
0	178758	94.71	-1
0	178946	94.81	-1
0	179134	94.91	-1
0	179328	95.01	-1
0	179516	95.11	-1
0	179704	95.21	-1
0	179892	95.31	-1
0	180080	95.41	-1
0	180268	95.51	-1
0	180456	95.61	-1
0	180644	95.71	-1
0	180832	95.81	-1
0	181020	95.91	-1
0	181214	96.01	-1
0	181402	96.11	-1
0	181590	96.21	-1
0	181778	96.31	-1
0	181966	96.41	-1
0	182154	96.51	-1
0	182342	96.61	-1
0	182530	96.71	-1
0	182718	96.81	-1
0	182906	96.91	-1
0	183100	97.01	-1
0	183288	97.11	-1
0	183476	97.21	-1
0	183664	97.31	-1
0	183852	97.41	-1
0	184040	97.51	-1
0	184228	97.61	-1
0	184416	97.71	-1
0	184604	97.81	-1
0	184792	97.91	-1
0	184986	98.01	-1
0	185174	98.11	-1
0	185362	98.21	-1
0	185550	98.31	-1
0	185738	98.41	-1
0	185926	98.51	-1
0	186114	98.61	-1
0	186302	98.71	-1
0	186490	98.81	-1
0	186678	98.91	-1
0	186872	99.01	-1
0	187060	99.11	-1
0	187248	99.21	-1
0	187436	99.31	-1
0	187624	99.41	-1
0	187812	99.51	-1
0	188000	99.61	-1
0	188188	99.71	-1
0	188376	99.81	-1
0	188564	99.91	-1
1	113	1.11	3.68088e-05
1	301	1.21	0.000136868
1	489	1.31	0.000227942
1	677	1.41	0.00029946
1	865	1.51	0.000353897
1	1053	1.61	0.000393227
1	1241	1.71	0.000419829
1	1429	1.81	0.000435522
1	1617	1.91	0.000441914
1	1811	2.01	0.000440551
1	1999	2.11	0.000433252
1	2187	2.21	0
1	2375	2.31	0
1	2563	2.41	0
1	2751	2.51	0
1	2939	2.61	0
1	3127	2.71	0
1	3315	2.81	0
1	3503	2.91	0
1	3697	3.01	0
1	3885	3.11	0
1	4073	3.21	0
1	4261	3.31	0
1	4449	3.41	0
1	4637	3.51	0
1	4825	3.61	0
1	5013	3.71	0
1	5201	3.81	0
1	5389	3.91	0
1	5583	4.01	0
1	5771	4.11	0
1	5959	4.21	0
1	6147	4.31	0
1	6335	4.41	0
1	6523	4.51	0
1	6711	4.61	0
1	6899	4.71	0
1	7087	4.81	0
1	7275	4.91	0
1	7469	5.01	0
1	7657	5.11	0
1	7845	5.21	0
1	8033	5.31	0
1	8221	5.41	0
1	8409	5.51	0
1	8597	5.61	0
1	8785	5.71	0
1	8973	5.81	0
1	9161	5.91	0
1	9355	6.01	0
1	9543	6.11	0
1	9731	6.21	0
1	9919	6.31	0
1	10107	6.41	0
1	10295	6.51	0
1	10483	6.61	0
1	10671	6.71	0
1	10859	6.81	0
1	11047	6.91	0
1	11241	7.01	0
1	11429	7.11	0
1	11617	7.21	0
1	11805	7.31	0
1	11993	7.41	0
1	12181	7.51	0
1	12369	7.61	0
1	12557	7.71	0
1	12745	7.81	0
1	12933	7.91	0
1	13127	8.01	0
1	13315	8.11	0
1	13503	8.21	0
1	13691	8.31	0
1	13879	8.41	0
1	14067	8.51	0
1	14255	8.61	0
1	14443	8.71	0
1	14631	8.81	0
1	14819	8.91	0
1	15013	9.01	0
1	15201	9.11	0
1	15389	9.21	0
1	15577	9.31	0
1	15765	9.41	0
1	15953	9.51	0
1	16141	9.61	0
1	16329	9.71	0
1	16517	9.81	0
1	16705	9.91	0
1	16957	10.01	0
1	17149	10.11	0
1	17341	10.21	0
1	17533	10.31	0
1	17725	10.41	0
1	17917	10.51	0
1	18109	10.61	0
1	18301	10.71	0
1	18493	10.81	0
1	18685	10.91	0
1	18883	11.01	0
1	19075	11.11	0
1	19267	11.21	0
1	19459	11.31	0
1	19651	11.41	0
1	19843	11.51	0
1	20035	11.61	0
1	20227	11.71	0
1	20419	11.81	0
1	20611	11.91	0
1	20809	12.01	0
1	21001	12.11	0
1	21193	12.21	0
1	21385	12.31	0
1	21577	12.41	0
1	21769	12.51	0
1	21961	12.61	0
1	22153	12.71	0
1	22345	12.81	0
1	22537	12.91	0
1	22735	13.01	0
1	22927	13.11	0
1	23119	13.21	0
1	23311	13.31	0
1	23503	13.41	0
1	23695	13.51	0
1	23887	13.61	0
1	24079	13.71	0
1	24271	13.81	0
1	24463	13.91	0
1	24661	14.01	0
1	24853	14.11	0
1	25045	14.21	0
1	25237	14.31	0
1	25429	14.41	0
1	25621	14.51	0
1	25813	14.61	0
1	26005	14.71	0
1	26197	14.81	0
1	26389	14.91	0
1	26587	15.01	0
1	26779	15.11	0
1	26971	15.21	0
1	27163	15.31	0
1	27355	15.41	0
1	27547	15.51	0
1	27739	15.61	0
1	27931	15.71	0
1	28123	15.81	0
1	28315	15.91	0
1	28513	16.01	0
1	28705	16.11	0
1	28897	16.21	0
1	29089	16.31	0
1	29281	16.41	0
1	29473	16.51	0
1	29665	16.61	0
1	29857	16.71	0
1	30049	16.81	0
1	30241	16.91	0
1	30439	17.01	0
1	30631	17.11	0
1	30823	17.21	0
1	31015	17.31	0
1	31207	17.41	0
1	31399	17.51	0
1	31591	17.61	0
1	31783	17.71	0
1	31975	17.81	0
1	32167	17.91	0
1	32365	18.01	0
1	32557	18.11	0
1	32749	18.21	0
1	32941	18.31	0
1	33133	18.41	0
1	33325	18.51	0
1	33517	18.61	0
1	33709	18.71	0
1	33901	18.81	0
1	34093	18.91	0
1	34291	19.01	0
1	34483	19.11	0
1	34675	19.21	0
1	34867	19.31	0
1	35059	19.41	0
1	35251	19.51	0
1	35443	19.61	0
1	35635	19.71	0
1	35827	19.81	0
1	36019	19.91	0
1	36217	20.01	0
1	36409	20.11	0
1	36601	20.21	0
1	36793	20.31	0
1	36985	20.41	0
1	37177	20.51	0
1	37369	20.61	0
1	37561	20.71	0
1	37753	20.81	0
1	37945	20.91	0
1	38143	21.01	0
1	38335	21.11	0
1	38527	21.21	0
1	38719	21.31	0
1	38911	21.41	0
1	39103	21.51	0
1	39295	21.61	0
1	39487	21.71	0
1	39679	21.81	0
1	39871	21.91	0
1	40069	22.01	0
1	40261	22.11	0
1	40453	22.21	0
1	40645	22.31	0
1	40837	22.41	0
1	41029	22.51	0
1	41221	22.61	0
1	41413	22.71	0
1	41605	22.81	0
1	41797	22.91	0
1	41995	23.01	0
1	42187	23.11	0
1	42379	23.21	0
1	42571	23.31	0
1	42763	23.41	0
1	42955	23.51	0
1	43147	23.61	0
1	43339	23.71	0
1	43531	23.81	0
1	43723	23.91	0
1	43921	24.01	0
1	44113	24.11	0
1	44305	24.21	0
1	44497	24.31	0
1	44689	24.41	0
1	44881	24.51	0
1	45073	24.61	0
1	45265	24.71	0
1	45457	24.81	0
1	45649	24.91	0
1	45847	25.01	0
1	46039	25.11	0
1	46231	25.21	0
1	46423	25.31	0
1	46615	25.41	0
1	46807	25.51	0
1	46999	25.61	0
1	47191	25.71	0
1	47383	25.81	0
1	47575	25.91	0
1	47773	26.01	0
1	47965	26.11	0
1	48157	26.21	0
1	48349	26.31	0
1	48541	26.41	0
1	48733	26.51	0
1	48925	26.61	0
1	49117	26.71	0
1	49309	26.81	0
1	49501	26.91	0
1	49699	27.01	0
1	49891	27.11	0
1	50083	27.21	0
1	50275	27.31	0
1	50467	27.41	0
1	50659	27.51	0
1	50851	27.61	0
1	51043	27.71	0
1	51235	27.81	0
1	51427	27.91	0
1	51625	28.01	0
1	51817	28.11	0
1	52009	28.21	0
1	52201	28.31	0
1	52393	28.41	0
1	52585	28.51	0
1	52777	28.61	0
1	52969	28.71	0
1	53161	28.81	0
1	53353	28.91	0
1	53551	29.01	0
1	53743	29.11	0
1	53935	29.21	0
1	54127	29.31	0
1	54319	29.41	0
1	54511	29.51	0
1	54703	29.61	0
1	54895	29.71	0
1	55087	29.81	0
1	55279	29.91	0
1	55477	30.01	0
1	55669	30.11	0
1	55861	30.21	0
1	56053	30.31	0
1	56245	30.41	0
1	56437	30.51	0
1	56629	30.61	0
1	56821	30.71	0
1	57013	30.81	0
1	57205	30.91	0
1	57403	31.01	0
1	57595	31.11	0
1	57787	31.21	0
1	57979	31.31	0
1	58171	31.41	0
1	58363	31.51	0
1	58555	31.61	0
1	58747	31.71	0
1	58939	31.81	0
1	59131	31.91	0
1	59329	32.01	0
1	59521	32.11	0
1	59713	32.21	0
1	59905	32.31	0
1	60097	32.41	0
1	60289	32.51	0
1	60481	32.61	0
1	60673	32.71	0
1	60865	32.81	0
1	61057	32.91	0
1	61255	33.01	0
1	61447	33.11	0
1	61639	33.21	0
1	61831	33.31	0
1	62023	33.41	0
1	62215	33.51	0
1	62407	33.61	0
1	62599	33.71	0
1	62791	33.81	0
1	62983	33.91	0
1	63181	34.01	0
1	63373	34.11	0
1	63565	34.21	0
1	63757	34.31	0
1	63949	34.41	0
1	64141	34.51	0
1	64333	34.61	0
1	64525	34.71	0
1	64717	34.81	0
1	64909	34.91	0
1	65107	35.01	0
1	65299	35.11	0
1	65491	35.21	0
1	65683	35.31	0
1	65875	35.41	0
1	66067	35.51	0
1	66259	35.61	0
1	66451	35.71	0
1	66643	35.81	0
1	66835	35.91	0
1	67033	36.01	0
1	67225	36.11	0
1	67417	36.21	0
1	67609	36.31	0
1	67801	36.41	0
1	67993	36.51	0
1	68185	36.61	0
1	68377	36.71	0
1	68569	36.81	0
1	68761	36.91	0
1	68959	37.01	0
1	69151	37.11	0
1	69343	37.21	0
1	69535	37.31	0
1	69727	37.41	0
1	69919	37.51	0
1	70111	37.61	0
1	70303	37.71	0
1	70495	37.81	0
1	70687	37.91	0
1	70885	38.01	0
1	71077	38.11	0
1	71269	38.21	0
1	71461	38.31	0
1	71653	38.41	0
1	71845	38.51	0
1	72037	38.61	0
1	72229	38.71	0
1	72421	38.81	0
1	72613	38.91	0
1	72811	39.01	0
1	73003	39.11	0
1	73195	39.21	0
1	73387	39.31	0
1	73579	39.41	0
1	73771	39.51	0
1	73963	39.61	0
1	74155	39.71	0
1	74347	39.81	0
1	74539	39.91	0
1	74737	40.01	0
1	74929	40.11	0
1	75121	40.21	0
1	75313	40.31	0
1	75505	40.41	0
1	75697	40.51	0
1	75889	40.61	0
1	76081	40.71	0
1	76273	40.81	0
1	76465	40.91	0
1	76663	41.01	0
1	76855	41.11	0
1	77047	41.21	0
1	77239	41.31	0
1	77431	41.41	0
1	77623	41.51	0
1	77815	41.61	0
1	78007	41.71	0
1	78199	41.81	0
1	78391	41.91	0
1	78589	42.01	0
1	78781	42.11	0
1	78973	42.21	0
1	79165	42.31	0
1	79357	42.41	0
1	79549	42.51	0
1	79741	42.61	0
1	79933	42.71	0
1	80125	42.81	0
1	80317	42.91	0
1	80515	43.01	0
1	80707	43.11	0
1	80899	43.21	0
1	81091	43.31	0
1	81283	43.41	0
1	81475	43.51	0
1	81667	43.61	0
1	81859	43.71	0
1	82051	43.81	0
1	82243	43.91	0
1	82441	44.01	0
1	82633	44.11	0
1	82825	44.21	0
1	83017	44.31	0
1	83209	44.41	0
1	83401	44.51	0
1	83593	44.61	0
1	83785	44.71	0
1	83977	44.81	0
1	84169	44.91	0
1	84367	45.01	0
1	84559	45.11	0
1	84751	45.21	0
1	84943	45.31	0
1	85135	45.41	0
1	85327	45.51	0
1	85519	45.61	0
1	85711	45.71	0
1	85969	45.81	0
1	86160	45.91	0
1	86357	46.01	0
1	86548	46.11	0
1	86739	46.21	0
1	86930	46.31	0
1	87121	46.41	0
1	87312	46.51	0
1	87503	46.61	0
1	87694	46.71	0
1	87885	46.81	0
1	88076	46.91	0
1	88273	47.01	0
1	88464	47.11	0
1	88655	47.21	0
1	88846	47.31	0
1	89037	47.41	0
1	89228	47.51	0
1	89419	47.61	0
1	89610	47.71	0
1	89801	47.81	0
1	90045	47.91	0
1	90241	48.01	0
1	90431	48.11	0
1	90621	48.21	0
1	90811	48.31	0
1	91001	48.41	0
1	91191	48.51	0
1	91381	48.61	0
1	91571	48.71	0
1	91761	48.81	0
1	91951	48.91	0
1	92147	49.01	0
1	92337	49.11	0
1	92527	49.21	0
1	92717	49.31	0
1	92907	49.41	0
1	93097	49.51	0
1	93287	49.61	0
1	93477	49.71	0
1	93667	49.81	0
1	93857	49.91	0
1	94053	50.01	0
1	94243	50.11	0
1	94433	50.21	0
1	94623	50.31	0
1	94813	50.41	0
1	95003	50.51	0
1	95193	50.61	0
1	95383	50.71	0
1	95573	50.81	0
1	95763	50.91	0
1	95959	51.01	0
1	96149	51.11	0
1	96339	51.21	0
1	96529	51.31	0
1	96719	51.41	0
1	96909	51.51	0
1	97099	51.61	0
1	97289	51.71	0
1	97479	51.81	0
1	97669	51.91	0
1	97865	52.01	0
1	98055	52.11	0
1	98245	52.21	0
1	98435	52.31	0
1	98625	52.41	0
1	98815	52.51	0
1	99005	52.61	0
1	99195	52.71	0
1	99385	52.81	0
1	99575	52.91	0
1	99771	53.01	0
1	99961	53.11	0
1	100151	53.21	0
1	100341	53.31	0
1	100531	53.41	0
1	100721	53.51	0
1	100911	53.61	0
1	101101	53.71	0
1	101291	53.81	0
1	101481	53.91	0
1	101677	54.01	0
1	101867	54.11	0
1	102110	54.21	0
1	102299	54.31	0
1	102488	54.41	0
1	102677	54.51	0
1	102866	54.61	0
1	103055	54.71	0
1	103244	54.81	0
1	103433	54.91	0
1	103628	55.01	0
1	103817	55.11	0
1	104006	55.21	0
1	104195	55.31	0
1	104384	55.41	0
1	104573	55.51	0
1	104762	55.61	0
1	104951	55.71	0
1	105140	55.81	0
1	105329	55.91	0
1	105524	56.01	0
1	105713	56.11	0
1	105902	56.21	0
1	106091	56.31	0
1	106280	56.41	0
1	106469	56.51	0
1	106658	56.61	0
1	106847	56.71	0
1	107036	56.81	0
1	107225	56.91	0
1	107420	57.01	0
1	107609	57.11	0
1	107798	57.21	0
1	107987	57.31	0
1	108176	57.41	0
1	108365	57.51	0
1	108554	57.61	0
1	108743	57.71	0
1	108932	57.81	0
1	109121	57.91	0
1	109316	58.01	0
1	109505	58.11	0
1	109694	58.21	0
1	109883	58.31	0
1	110072	58.41	0
1	110261	58.51	0
1	110450	58.61	0
1	110639	58.71	0
1	110828	58.81	0
1	111017	58.91	0
1	111212	59.01	0
1	111401	59.11	0
1	111590	59.21	0
1	111779	59.31	0
1	111968	59.41	0
1	112157	59.51	0
1	112346	59.61	0
1	112535	59.71	0
1	112936	59.81	0
1	113124	59.91	0
1	113318	60.01	0
1	113506	60.11	0
1	113694	60.21	0
1	113882	60.31	0
1	114070	60.41	0
1	114258	60.51	0
1	114446	60.61	0
1	114634	60.71	0
1	114822	60.81	0
1	115010	60.91	0
1	115204	61.01	0
1	115392	61.11	0
1	115580	61.21	0
1	115768	61.31	0
1	115956	61.41	0
1	116144	61.51	0
1	116332	61.61	0
1	116520	61.71	0
1	116708	61.81	0
1	116896	61.91	0
1	117090	62.01	0
1	117278	62.11	0
1	117466	62.21	0
1	117654	62.31	0
1	117842	62.41	0
1	118030	62.51	0
1	118218	62.61	0
1	118406	62.71	0
1	118594	62.81	0
1	118782	62.91	0
1	118976	63.01	0
1	119164	63.11	0
1	119352	63.21	0
1	119540	63.31	0
1	119728	63.41	0
1	119916	63.51	0
1	120104	63.61	0
1	120292	63.71	0
1	120480	63.81	0
1	120668	63.91	0
1	120862	64.01	0
1	121050	64.11	0
1	121238	64.21	0
1	121426	64.31	0
1	121614	64.41	0
1	121802	64.51	0
1	121990	64.61	0
1	122178	64.71	0
1	122366	64.81	0
1	122554	64.91	0
1	122748	65.01	0
1	122936	65.11	0
1	123124	65.21	0
1	123312	65.31	0
1	123500	65.41	0
1	123688	65.51	0
1	123876	65.61	0
1	124064	65.71	0
1	124252	65.81	0
1	124440	65.91	0
1	124634	66.01	0
1	124822	66.11	0
1	125010	66.21	0
1	125198	66.31	0
1	125386	66.41	0
1	125574	66.51	0
1	125762	66.61	0
1	125950	66.71	0
1	126138	66.81	0
1	126326	66.91	0
1	126520	67.01	0
1	126708	67.11	0
1	126896	67.21	0
1	127084	67.31	0
1	127272	67.41	0
1	127460	67.51	0
1	127648	67.61	0
1	127836	67.71	0
1	128024	67.81	0
1	128212	67.91	0
1	128406	68.01	0
1	128594	68.11	0
1	128782	68.21	0
1	128970	68.31	0
1	129158	68.41	0
1	129346	68.51	0
1	129534	68.61	0
1	129722	68.71	0
1	129910	68.81	0
1	130098	68.91	0
1	130292	69.01	0
1	130480	69.11	0
1	130668	69.21	0
1	130856	69.31	0
1	131044	69.41	0
1	131232	69.51	0
1	131420	69.61	0
1	131608	69.71	0
1	131796	69.81	0
1	131984	69.91	0
1	132178	70.01	0
1	132366	70.11	0
1	132554	70.21	0
1	132742	70.31	0
1	132930	70.41	0
1	133118	70.51	0
1	133306	70.61	0
1	133494	70.71	0
1	133682	70.81	0
1	133870	70.91	0
1	134064	71.01	0
1	134252	71.11	0
1	134440	71.21	0
1	134628	71.31	0
1	134816	71.41	0
1	135004	71.51	0
1	135192	71.61	0
1	135380	71.71	0
1	135568	71.81	0
1	135756	71.91	0
1	135950	72.01	0
1	136138	72.11	0
1	136326	72.21	0
1	136514	72.31	0
1	136702	72.41	0
1	136890	72.51	0
1	137078	72.61	0
1	137266	72.71	0
1	137454	72.81	0
1	137642	72.91	0
1	137836	73.01	0
1	138024	73.11	0
1	138212	73.21	0
1	138400	73.31	0
1	138588	73.41	0
1	138776	73.51	0
1	138964	73.61	0
1	139152	73.71	0
1	139340	73.81	0
1	139528	73.91	0
1	139722	74.01	0
1	139910	74.11	0
1	140098	74.21	0
1	140286	74.31	0
1	140474	74.41	0
1	140662	74.51	0
1	140850	74.61	0
1	141038	74.71	0
1	141226	74.81	0
1	141414	74.91	0
1	141608	75.01	0
1	141796	75.11	0
1	141984	75.21	0
1	142172	75.31	0
1	142360	75.41	0
1	142548	75.51	0
1	142736	75.61	0
1	142924	75.71	0
1	143112	75.81	0
1	143300	75.91	0
1	143494	76.01	0
1	143682	76.11	0
1	143870	76.21	0
1	144058	76.31	0
1	144246	76.41	0
1	144434	76.51	0
1	144622	76.61	0
1	144810	76.71	0
1	144998	76.81	0
1	145186	76.91	0
1	145380	77.01	0
1	145568	77.11	0
1	145756	77.21	0
1	145944	77.31	0
1	146132	77.41	0
1	146320	77.51	0
1	146508	77.61	0
1	146696	77.71	0
1	146884	77.81	0
1	147072	77.91	0
1	147266	78.01	0
1	147454	78.11	0
1	147642	78.21	0
1	147830	78.31	0
1	148018	78.41	0
1	148206	78.51	0
1	148394	78.61	0
1	148582	78.71	0
1	148770	78.81	0
1	148958	78.91	0
1	149152	79.01	0
1	149340	79.11	0
1	149528	79.21	0
1	149716	79.31	0
1	149904	79.41	0
1	150092	79.51	0
1	150280	79.61	0
1	150468	79.71	0
1	150656	79.81	0
1	150844	79.91	0
1	151038	80.01	0
1	151226	80.11	0
1	151414	80.21	0
1	151602	80.31	0
1	151790	80.41	0
1	151978	80.51	0
1	152166	80.61	0
1	152354	80.71	0
1	152542	80.81	0
1	152730	80.91	0
1	152924	81.01	0
1	153112	81.11	0
1	153300	81.21	0
1	153488	81.31	0
1	153676	81.41	0
1	153864	81.51	0
1	154052	81.61	0
1	154240	81.71	0
1	154428	81.81	0
1	154616	81.91	0
1	154810	82.01	0
1	154998	82.11	0
1	155186	82.21	0
1	155374	82.31	0
1	155562	82.41	0
1	155750	82.51	0
1	155938	82.61	0
1	156126	82.71	0
1	156314	82.81	0
1	156502	82.91	0
1	156696	83.01	0
1	156884	83.11	0
1	157072	83.21	0
1	157260	83.31	0
1	157448	83.41	0
1	157636	83.51	0
1	157824	83.61	0
1	158012	83.71	0
1	158200	83.81	0
1	158388	83.91	0
1	158582	84.01	0
1	158770	84.11	0
1	158958	84.21	0
1	159146	84.31	0
1	159334	84.41	0
1	159522	84.51	0
1	159710	84.61	0
1	159898	84.71	0
1	160086	84.81	0
1	160274	84.91	0
1	160468	85.01	0
1	160656	85.11	0
1	160844	85.21	0
1	161032	85.31	0
1	161220	85.41	0
1	161408	85.51	0
1	161596	85.61	0
1	161784	85.71	0
1	161972	85.81	0
1	162160	85.91	0
1	162354	86.01	0
1	162542	86.11	0
1	162730	86.21	0
1	162918	86.31	0
1	163106	86.41	0
1	163294	86.51	0
1	163482	86.61	0
1	163670	86.71	0
1	163858	86.81	0
1	164046	86.91	0
1	164240	87.01	0
1	164428	87.11	0
1	164616	87.21	0
1	164804	87.31	0
1	164992	87.41	0
1	165180	87.51	0
1	165368	87.61	0
1	165556	87.71	0
1	165744	87.81	0
1	165932	87.91	0
1	166126	88.01	0
1	166314	88.11	0
1	166502	88.21	0
1	166690	88.31	0
1	166878	88.41	0
1	167066	88.51	0
1	167254	88.61	0
1	167442	88.71	0
1	167630	88.81	0
1	167818	88.91	0
1	168012	89.01	0
1	168200	89.11	0
1	168388	89.21	0
1	168576	89.31	0
1	168764	89.41	0
1	168952	89.51	0
1	169140	89.61	0
1	169328	89.71	0
1	169516	89.81	0
1	169704	89.91	0
1	169898	90.01	0
1	170086	90.11	0
1	170274	90.21	0
1	170462	90.31	0
1	170650	90.41	0
1	170838	90.51	0
1	171026	90.61	0
1	171214	90.71	0
1	171402	90.81	0
1	171590	90.91	0
1	171784	91.01	0
1	171972	91.11	0
1	172160	91.21	0
1	172348	91.31	0
1	172536	91.41	0
1	172724	91.51	0
1	172912	91.61	0
1	173100	91.71	0
1	173288	91.81	0
1	173476	91.91	0
1	173670	92.01	0
1	173858	92.11	0
1	174046	92.21	0
1	174234	92.31	0
1	174422	92.41	0
1	174610	92.51	0
1	174798	92.61	0
1	174986	92.71	0
1	175174	92.81	0
1	175362	92.91	0
1	175556	93.01	0
1	175744	93.11	0
1	175932	93.21	0
1	176120	93.31	0
1	176308	93.41	0
1	176496	93.51	0
1	176684	93.61	0
1	176872	93.71	0
1	177060	93.81	0
1	177248	93.91	0
1	177442	94.01	0
1	177630	94.11	0
1	177818	94.21	0
1	178006	94.31	0
1	178194	94.41	0
1	178382	94.51	0
1	178570	94.61	0
1	178758	94.71	0
1	178946	94.81	0
1	179134	94.91	0
1	179328	95.01	0
1	179516	95.11	0
1	179704	95.21	0
1	179892	95.31	0
1	180080	95.41	0
1	180268	95.51	0
1	180456	95.61	0
1	180644	95.71	0
1	180832	95.81	0
1	181020	95.91	0
1	181214	96.01	0
1	181402	96.11	0
1	181590	96.21	0
1	181778	96.31	0
1	181966	96.41	0
1	182154	96.51	0
1	182342	96.61	0
1	182530	96.71	0
1	182718	96.81	0
1	182906	96.91	0
1	183100	97.01	0
1	183288	97.11	0
1	183476	97.21	0
1	183664	97.31	0
1	183852	97.41	0
1	184040	97.51	0
1	184228	97.61	0
1	184416	97.71	0
1	184604	97.81	0
1	184792	97.91	0
1	184986	98.01	0
1	185174	98.11	0
1	185362	98.21	0
1	185550	98.31	0
1	185738	98.41	0
1	185926	98.51	0
1	186114	98.61	0
1	186302	98.71	0
1	186490	98.81	0
1	186678	98.91	0
1	186872	99.01	0
1	187060	99.11	0
1	187248	99.21	0
1	187436	99.31	0
1	187624	99.41	0
1	187812	99.51	0
1	188000	99.61	0
1	188188	99.71	0
1	188376	99.81	0
1	188564	99.91	0
2	113	1.11	0
2	301	1.21	0
2	489	1.31	0
2	677	1.41	0
2	865	1.51	0
2	1053	1.61	0
2	1241	1.71	0
2	1429	1.81	0
2	1617	1.91	0
2	1811	2.01	0
2	1999	2.11	0
2	2187	2.21	0
2	2375	2.31	0
2	2563	2.41	0
2	2751	2.51	0
2	2939	2.61	0
2	3127	2.71	0
2	3315	2.81	0
2	3503	2.91	0
2	3697	3.01	0
2	3885	3.11	0
2	4073	3.21	0
2	4261	3.31	0
2	4449	3.41	0
2	4637	3.51	0
2	4825	3.61	0
2	5013	3.71	0
2	5201	3.81	0
2	5389	3.91	0
2	5583	4.01	0
2	5771	4.11	0
2	5959	4.21	0
2	6147	4.31	0
2	6335	4.41	0
2	6523	4.51	0
2	6711	4.61	0
2	6899	4.71	0
2	7087	4.81	0
2	7275	4.91	0
2	7469	5.01	0
2	7657	5.11	0
2	7845	5.21	0
2	8033	5.31	0
2	8221	5.41	0
2	8409	5.51	0
2	8597	5.61	0
2	8785	5.71	0
2	8973	5.81	0
2	9161	5.91	0
2	9355	6.01	0
2	9543	6.11	0
2	9731	6.21	0
2	9919	6.31	0
2	10107	6.41	0
2	10295	6.51	0
2	10483	6.61	0
2	10671	6.71	0
2	10859	6.81	0
2	11047	6.91	0
2	11241	7.01	0
2	11429	7.11	0
2	11617	7.21	0
2	11805	7.31	0
2	11993	7.41	0
2	12181	7.51	0
2	12369	7.61	0
2	12557	7.71	0
2	12745	7.81	0
2	12933	7.91	0
2	13127	8.01	0
2	13315	8.11	0
2	13503	8.21	0
2	13691	8.31	0
2	13879	8.41	0
2	14067	8.51	0
2	14255	8.61	0
2	14443	8.71	0
2	14631	8.81	0
2	14819	8.91	0
2	15013	9.01	0
2	15201	9.11	0
2	15389	9.21	0
2	15577	9.31	0
2	15765	9.41	0
2	15953	9.51	0
2	16141	9.61	0
2	16329	9.71	0
2	16517	9.81	0
2	16705	9.91	0
2	16957	10.01	0
2	17149	10.11	0
2	17341	10.21	0
2	17533	10.31	0
2	17725	10.41	0
2	17917	10.51	0
2	18109	10.61	0
2	18301	10.71	0
2	18493	10.81	0
2	18685	10.91	0
2	18883	11.01	0
2	19075	11.11	0
2	19267	11.21	0
2	19459	11.31	0
2	19651	11.41	0
2	19843	11.51	0
2	20035	11.61	0
2	20227	11.71	0
2	20419	11.81	0
2	20611	11.91	0
2	20809	12.01	0
2	21001	12.11	0
2	21193	12.21	0
2	21385	12.31	0
2	21577	12.41	0
2	21769	12.51	0
2	21961	12.61	0
2	22153	12.71	0
2	22345	12.81	0
2	22537	12.91	0
2	22735	13.01	0
2	22927	13.11	0
2	23119	13.21	0
2	23311	13.31	0
2	23503	13.41	0
2	23695	13.51	0
2	23887	13.61	0
2	24079	13.71	0
2	24271	13.81	0
2	24463	13.91	0
2	24661	14.01	0
2	24853	14.11	0
2	25045	14.21	0
2	25237	14.31	0
2	25429	14.41	0
2	25621	14.51	0
2	25813	14.61	0
2	26005	14.71	0
2	26197	14.81	0
2	26389	14.91	0
2	26587	15.01	0
2	26779	15.11	0
2	26971	15.21	0
2	27163	15.31	0
2	27355	15.41	0
2	27547	15.51	0
2	27739	15.61	0
2	27931	15.71	0
2	28123	15.81	0
2	28315	15.91	0
2	28513	16.01	0
2	28705	16.11	0
2	28897	16.21	0
2	29089	16.31	0
2	29281	16.41	0
2	29473	16.51	0
2	29665	16.61	0
2	29857	16.71	0
2	30049	16.81	0
2	30241	16.91	0
2	30439	17.01	0
2	30631	17.11	0
2	30823	17.21	0
2	31015	17.31	0
2	31207	17.41	0
2	31399	17.51	0
2	31591	17.61	0
2	31783	17.71	0
2	31975	17.81	0
2	32167	17.91	0
2	32365	18.01	0
2	32557	18.11	0
2	32749	18.21	0
2	32941	18.31	0
2	33133	18.41	0
2	33325	18.51	0
2	33517	18.61	0
2	33709	18.71	0
2	33901	18.81	0
2	34093	18.91	0
2	34291	19.01	0
2	34483	19.11	0
2	34675	19.21	0
2	34867	19.31	0
2	35059	19.41	0
2	35251	19.51	0
2	35443	19.61	0
2	35635	19.71	0
2	35827	19.81	0
2	36019	19.91	0
2	36217	20.01	0
2	36409	20.11	0
2	36601	20.21	0
2	36793	20.31	0
2	36985	20.41	0
2	37177	20.51	0
2	37369	20.61	0
2	37561	20.71	0
2	37753	20.81	0
2	37945	20.91	0
2	38143	21.01	0
2	38335	21.11	0
2	38527	21.21	0
2	38719	21.31	0
2	38911	21.41	0
2	39103	21.51	0
2	39295	21.61	0
2	39487	21.71	0
2	39679	21.81	0
2	39871	21.91	0
2	40069	22.01	0
2	40261	22.11	0
2	40453	22.21	0
2	40645	22.31	0
2	40837	22.41	0
2	41029	22.51	0
2	41221	22.61	0
2	41413	22.71	0
2	41605	22.81	0
2	41797	22.91	0
2	41995	23.01	0
2	42187	23.11	0
2	42379	23.21	0
2	42571	23.31	0
2	42763	23.41	0
2	42955	23.51	0
2	43147	23.61	0
2	43339	23.71	0
2	43531	23.81	0
2	43723	23.91	0
2	43921	24.01	0
2	44113	24.11	0
2	44305	24.21	0
2	44497	24.31	0
2	44689	24.41	0
2	44881	24.51	0
2	45073	24.61	0
2	45265	24.71	0
2	45457	24.81	0
2	45649	24.91	0
2	45847	25.01	0
2	46039	25.11	0
2	46231	25.21	0
2	46423	25.31	0
2	46615	25.41	0
2	46807	25.51	0
2	46999	25.61	0
2	47191	25.71	0
2	47383	25.81	0
2	47575	25.91	0
2	47773	26.01	0
2	47965	26.11	0
2	48157	26.21	0
2	48349	26.31	0
2	48541	26.41	0
2	48733	26.51	0
2	48925	26.61	0
2	49117	26.71	0
2	49309	26.81	0
2	49501	26.91	0
2	49699	27.01	0
2	49891	27.11	0
2	50083	27.21	0
2	50275	27.31	0
2	50467	27.41	0
2	50659	27.51	0
2	50851	27.61	0
2	51043	27.71	0
2	51235	27.81	0
2	51427	27.91	0
2	51625	28.01	0
2	51817	28.11	0
2	52009	28.21	0
2	52201	28.31	0
2	52393	28.41	0
2	52585	28.51	0
2	52777	28.61	0
2	52969	28.71	0
2	53161	28.81	0
2	53353	28.91	0
2	53551	29.01	0
2	53743	29.11	0
2	53935	29.21	0
2	54127	29.31	0
2	54319	29.41	0
2	54511	29.51	0
2	54703	29.61	0
2	54895	29.71	0
2	55087	29.81	0
2	55279	29.91	0
2	55477	30.01	0
2	55669	30.11	0
2	55861	30.21	0
2	56053	30.31	0
2	56245	30.41	0
2	56437	30.51	0
2	56629	30.61	0
2	56821	30.71	0
2	57013	30.81	0
2	57205	30.91	0
2	57403	31.01	0
2	57595	31.11	0
2	57787	31.21	0
2	57979	31.31	0
2	58171	31.41	0
2	58363	31.51	0
2	58555	31.61	0
2	58747	31.71	0
2	58939	31.81	0
2	59131	31.91	0
2	59329	32.01	0
2	59521	32.11	0
2	59713	32.21	0
2	59905	32.31	0
2	60097	32.41	0
2	60289	32.51	0
2	60481	32.61	0
2	60673	32.71	0
2	60865	32.81	0
2	61057	32.91	0
2	61255	33.01	0
2	61447	33.11	0
2	61639	33.21	0
2	61831	33.31	0
2	62023	33.41	0
2	62215	33.51	0
2	62407	33.61	0
2	62599	33.71	0
2	62791	33.81	0
2	62983	33.91	0
2	63181	34.01	0
2	63373	34.11	0
2	63565	34.21	0
2	63757	34.31	0
2	63949	34.41	0
2	64141	34.51	0
2	64333	34.61	0
2	64525	34.71	0
2	64717	34.81	0
2	64909	34.91	0
2	65107	35.01	0
2	65299	35.11	0
2	65491	35.21	0
2	65683	35.31	0
2	65875	35.41	0
2	66067	35.51	0
2	66259	35.61	0
2	66451	35.71	0
2	66643	35.81	0
2	66835	35.91	0
2	67033	36.01	0
2	67225	36.11	0
2	67417	36.21	0
2	67609	36.31	0
2	67801	36.41	0
2	67993	36.51	0
2	68185	36.61	0
2	68377	36.71	0
2	68569	36.81	0
2	68761	36.91	0
2	68959	37.01	0
2	69151	37.11	0
2	69343	37.21	0
2	69535	37.31	0
2	69727	37.41	0
2	69919	37.51	0
2	70111	37.61	0
2	70303	37.71	0
2	70495	37.81	0
2	70687	37.91	0
2	70885	38.01	0
2	71077	38.11	0
2	71269	38.21	0
2	71461	38.31	0
2	71653	38.41	0
2	71845	38.51	0
2	72037	38.61	0
2	72229	38.71	0
2	72421	38.81	0
2	72613	38.91	0
2	72811	39.01	0
2	73003	39.11	0
2	73195	39.21	0
2	73387	39.31	0
2	73579	39.41	0
2	73771	39.51	0
2	73963	39.61	0
2	74155	39.71	0
2	74347	39.81	0
2	74539	39.91	0
2	74737	40.01	0
2	74929	40.11	0
2	75121	40.21	0
2	75313	40.31	0
2	75505	40.41	0
2	75697	40.51	0
2	75889	40.61	0
2	76081	40.71	0
2	76273	40.81	0
2	76465	40.91	0
2	76663	41.01	0
2	76855	41.11	0
2	77047	41.21	0
2	77239	41.31	0
2	77431	41.41	0
2	77623	41.51	0
2	77815	41.61	0
2	78007	41.71	0
2	78199	41.81	0
2	78391	41.91	0
2	78589	42.01	0
2	78781	42.11	0
2	78973	42.21	0
2	79165	42.31	0
2	79357	42.41	0
2	79549	42.51	0
2	79741	42.61	0
2	79933	42.71	0
2	80125	42.81	0
2	80317	42.91	0
2	80515	43.01	0
2	80707	43.11	0
2	80899	43.21	0
2	81091	43.31	0
2	81283	43.41	0
2	81475	43.51	0
2	81667	43.61	0
2	81859	43.71	0
2	82051	43.81	0
2	82243	43.91	0
2	82441	44.01	0
2	82633	44.11	0
2	82825	44.21	0
2	83017	44.31	0
2	83209	44.41	0
2	83401	44.51	0
2	83593	44.61	0
2	83785	44.71	0
2	83977	44.81	0
2	84169	44.91	0
2	84367	45.01	0
2	84559	45.11	0
2	84751	45.21	0
2	84943	45.31	0
2	85135	45.41	0
2	85327	45.51	0
2	85519	45.61	0
2	85711	45.71	0
2	85969	45.81	0
2	86160	45.91	0
2	86357	46.01	0
2	86548	46.11	0
2	86739	46.21	0
2	86930	46.31	0
2	87121	46.41	0
2	87312	46.51	0
2	87503	46.61	0
2	87694	46.71	0
2	87885	46.81	0
2	88076	46.91	0
2	88273	47.01	0
2	88464	47.11	0
2	88655	47.21	0
2	88846	47.31	0
2	89037	47.41	0
2	89228	47.51	0
2	89419	47.61	0
2	89610	47.71	0
2	89801	47.81	0
2	90045	47.91	0
2	90241	48.01	0
2	90431	48.11	0
2	90621	48.21	0
2	90811	48.31	0
2	91001	48.41	0
2	91191	48.51	0
2	91381	48.61	0
2	91571	48.71	0
2	91761	48.81	0
2	91951	48.91	0
2	92147	49.01	0
2	92337	49.11	0
2	92527	49.21	0
2	92717	49.31	0
2	92907	49.41	0
2	93097	49.51	0
2	93287	49.61	0
2	93477	49.71	0
2	93667	49.81	0
2	93857	49.91	0
2	94053	50.01	0
2	94243	50.11	0
2	94433	50.21	0
2	94623	50.31	0
2	94813	50.41	0
2	95003	50.51	0
2	95193	50.61	0
2	95383	50.71	0
2	95573	50.81	0
2	95763	50.91	0
2	95959	51.01	0
2	96149	51.11	0
2	96339	51.21	0
2	96529	51.31	0
2	96719	51.41	0
2	96909	51.51	0
2	97099	51.61	0
2	97289	51.71	0
2	97479	51.81	0
2	97669	51.91	0
2	97865	52.01	0
2	98055	52.11	0
2	98245	52.21	0
2	98435	52.31	0
2	98625	52.41	0
2	98815	52.51	0
2	99005	52.61	0
2	99195	52.71	0
2	99385	52.81	0
2	99575	52.91	0
2	99771	53.01	0
2	99961	53.11	0
2	100151	53.21	0
2	100341	53.31	0
2	100531	53.41	0
2	100721	53.51	0
2	100911	53.61	0
2	101101	53.71	0
2	101291	53.81	0
2	101481	53.91	0
2	101677	54.01	0
2	101867	54.11	0
2	102110	54.21	0
2	102299	54.31	0
2	102488	54.41	0
2	102677	54.51	0
2	102866	54.61	0
2	103055	54.71	0
2	103244	54.81	0
2	103433	54.91	0
2	103628	55.01	0
2	103817	55.11	0
2	104006	55.21	0
2	104195	55.31	0
2	104384	55.41	0
2	104573	55.51	0
2	104762	55.61	0
2	104951	55.71	0
2	105140	55.81	0
2	105329	55.91	0
2	105524	56.01	0
2	105713	56.11	0
2	105902	56.21	0
2	106091	56.31	0
2	106280	56.41	0
2	106469	56.51	0
2	106658	56.61	0
2	106847	56.71	0
2	107036	56.81	0
2	107225	56.91	0
2	107420	57.01	0
2	107609	57.11	0
2	107798	57.21	0
2	107987	57.31	0
2	108176	57.41	0
2	108365	57.51	0
2	108554	57.61	0
2	108743	57.71	0
2	108932	57.81	0
2	109121	57.91	0
2	109316	58.01	0
2	109505	58.11	0
2	109694	58.21	0
2	109883	58.31	0
2	110072	58.41	0
2	110261	58.51	0
2	110450	58.61	0
2	110639	58.71	0
2	110828	58.81	0
2	111017	58.91	0
2	111212	59.01	0
2	111401	59.11	0
2	111590	59.21	0
2	111779	59.31	0
2	111968	59.41	0
2	112157	59.51	0
2	112346	59.61	0
2	112535	59.71	0
2	112936	59.81	0
2	113124	59.91	0
2	113318	60.01	0
2	113506	60.11	0
2	113694	60.21	0
2	113882	60.31	0
2	114070	60.41	0
2	114258	60.51	0
2	114446	60.61	0
2	114634	60.71	0
2	114822	60.81	0
2	115010	60.91	0
2	115204	61.01	0
2	115392	61.11	0
2	115580	61.21	0
2	115768	61.31	0
2	115956	61.41	0
2	116144	61.51	0
2	116332	61.61	0
2	116520	61.71	0
2	116708	61.81	0
2	116896	61.91	0
2	117090	62.01	0
2	117278	62.11	0
2	117466	62.21	0
2	117654	62.31	0
2	117842	62.41	0
2	118030	62.51	0
2	118218	62.61	0
2	118406	62.71	0
2	118594	62.81	0
2	118782	62.91	0
2	118976	63.01	0
2	119164	63.11	0
2	119352	63.21	0
2	119540	63.31	0
2	119728	63.41	0
2	119916	63.51	0
2	120104	63.61	0
2	120292	63.71	0
2	120480	63.81	0
2	120668	63.91	0
2	120862	64.01	0
2	121050	64.11	0
2	121238	64.21	0
2	121426	64.31	0
2	121614	64.41	0
2	121802	64.51	0
2	121990	64.61	0
2	122178	64.71	0
2	122366	64.81	0
2	122554	64.91	0
2	122748	65.01	0
2	122936	65.11	0
2	123124	65.21	0
2	123312	65.31	0
2	123500	65.41	0
2	123688	65.51	0
2	123876	65.61	0
2	124064	65.71	0
2	124252	65.81	0
2	124440	65.91	0
2	124634	66.01	0
2	124822	66.11	0
2	125010	66.21	0
2	125198	66.31	0
2	125386	66.41	0
2	125574	66.51	0
2	125762	66.61	0
2	125950	66.71	0
2	126138	66.81	0
2	126326	66.91	0
2	126520	67.01	0
2	126708	67.11	0
2	126896	67.21	0
2	127084	67.31	0
2	127272	67.41	0
2	127460	67.51	0
2	127648	67.61	0
2	127836	67.71	0
2	128024	67.81	0
2	128212	67.91	0
2	128406	68.01	0
2	128594	68.11	0
2	128782	68.21	0
2	128970	68.31	0
2	129158	68.41	0
2	129346	68.51	0
2	129534	68.61	0
2	129722	68.71	0
2	129910	68.81	0
2	130098	68.91	0
2	130292	69.01	0
2	130480	69.11	0
2	130668	69.21	0
2	130856	69.31	0
2	131044	69.41	0
2	131232	69.51	0
2	131420	69.61	0
2	131608	69.71	0
2	131796	69.81	0
2	131984	69.91	0
2	132178	70.01	0
2	132366	70.11	0
2	132554	70.21	0
2	132742	70.31	0
2	132930	70.41	0
2	133118	70.51	0
2	133306	70.61	0
2	133494	70.71	0
2	133682	70.81	0
2	133870	70.91	0
2	134064	71.01	0
2	134252	71.11	0
2	134440	71.21	0
2	134628	71.31	0
2	134816	71.41	0
2	135004	71.51	0
2	135192	71.61	0
2	135380	71.71	0
2	135568	71.81	0
2	135756	71.91	0
2	135950	72.01	0
2	136138	72.11	0
2	136326	72.21	0
2	136514	72.31	0
2	136702	72.41	0
2	136890	72.51	0
2	137078	72.61	0
2	137266	72.71	0
2	137454	72.81	0
2	137642	72.91	0
2	137836	73.01	0
2	138024	73.11	0
2	138212	73.21	0
2	138400	73.31	0
2	138588	73.41	0
2	138776	73.51	0
2	138964	73.61	0
2	139152	73.71	0
2	139340	73.81	0
2	139528	73.91	0
2	139722	74.01	0
2	139910	74.11	0
2	140098	74.21	0
2	140286	74.31	0
2	140474	74.41	0
2	140662	74.51	0
2	140850	74.61	0
2	141038	74.71	0
2	141226	74.81	0
2	141414	74.91	0
2	141608	75.01	0
2	141796	75.11	0
2	141984	75.21	0
2	142172	75.31	0
2	142360	75.41	0
2	142548	75.51	0
2	142736	75.61	0
2	142924	75.71	0
2	143112	75.81	0
2	143300	75.91	0
2	143494	76.01	0
2	143682	76.11	0
2	143870	76.21	0
2	144058	76.31	0
2	144246	76.41	0
2	144434	76.51	0
2	144622	76.61	0
2	144810	76.71	0
2	144998	76.81	0
2	145186	76.91	0
2	145380	77.01	0
2	145568	77.11	0
2	145756	77.21	0
2	145944	77.31	0
2	146132	77.41	0
2	146320	77.51	0
2	146508	77.61	0
2	146696	77.71	0
2	146884	77.81	0
2	147072	77.91	0
2	147266	78.01	0
2	147454	78.11	0
2	147642	78.21	0
2	147830	78.31	0
2	148018	78.41	0
2	148206	78.51	0
2	148394	78.61	0
2	148582	78.71	0
2	148770	78.81	0
2	148958	78.91	0
2	149152	79.01	0
2	149340	79.11	0
2	149528	79.21	0
2	149716	79.31	0
2	149904	79.41	0
2	150092	79.51	0
2	150280	79.61	0
2	150468	79.71	0
2	150656	79.81	0
2	150844	79.91	0
2	151038	80.01	0
2	151226	80.11	0
2	151414	80.21	0
2	151602	80.31	0
2	151790	80.41	0
2	151978	80.51	0
2	152166	80.61	0
2	152354	80.71	0
2	152542	80.81	0
2	152730	80.91	0
2	152924	81.01	0
2	153112	81.11	0
2	153300	81.21	0
2	153488	81.31	0
2	153676	81.41	0
2	153864	81.51	0
2	154052	81.61	0
2	154240	81.71	0
2	154428	81.81	0
2	154616	81.91	0
2	154810	82.01	0
2	154998	82.11	0
2	155186	82.21	0
2	155374	82.31	0
2	155562	82.41	0
2	155750	82.51	0
2	155938	82.61	0
2	156126	82.71	0
2	156314	82.81	0
2	156502	82.91	0
2	156696	83.01	0
2	156884	83.11	0
2	157072	83.21	0
2	157260	83.31	0
2	157448	83.41	0
2	157636	83.51	0
2	157824	83.61	0
2	158012	83.71	0
2	158200	83.81	0
2	158388	83.91	0
2	158582	84.01	0
2	158770	84.11	0
2	158958	84.21	0
2	159146	84.31	0
2	159334	84.41	0
2	159522	84.51	0
2	159710	84.61	0
2	159898	84.71	0
2	160086	84.81	0
2	160274	84.91	0
2	160468	85.01	0
2	160656	85.11	0
2	160844	85.21	0
2	161032	85.31	0
2	161220	85.41	0
2	161408	85.51	0
2	161596	85.61	0
2	161784	85.71	0
2	161972	85.81	0
2	162160	85.91	0
2	162354	86.01	0
2	162542	86.11	0
2	162730	86.21	0
2	162918	86.31	0
2	163106	86.41	0
2	163294	86.51	0
2	163482	86.61	0
2	163670	86.71	0
2	163858	86.81	0
2	164046	86.91	0
2	164240	87.01	0
2	164428	87.11	0
2	164616	87.21	0
2	164804	87.31	0
2	164992	87.41	0
2	165180	87.51	0
2	165368	87.61	0
2	165556	87.71	0
2	165744	87.81	0
2	165932	87.91	0
2	166126	88.01	0
2	166314	88.11	0
2	166502	88.21	0
2	166690	88.31	0
2	166878	88.41	0
2	167066	88.51	0
2	167254	88.61	0
2	167442	88.71	0
2	167630	88.81	0
2	167818	88.91	0
2	168012	89.01	0
2	168200	89.11	0
2	168388	89.21	0
2	168576	89.31	0
2	168764	89.41	0
2	168952	89.51	0
2	169140	89.61	0
2	169328	89.71	0
2	169516	89.81	0
2	169704	89.91	0
2	169898	90.01	0
2	170086	90.11	0
2	170274	90.21	0
2	170462	90.31	0
2	170650	90.41	0
2	170838	90.51	0
2	171026	90.61	0
2	171214	90.71	0
2	171402	90.81	0
2	171590	90.91	0
2	171784	91.01	0
2	171972	91.11	0
2	172160	91.21	0
2	172348	91.31	0
2	172536	91.41	0
2	172724	91.51	0
2	172912	91.61	0
2	173100	91.71	0
2	173288	91.81	0
2	173476	91.91	0
2	173670	92.01	0
2	173858	92.11	0
2	174046	92.21	0
2	174234	92.31	0
2	174422	92.41	0
2	174610	92.51	0
2	174798	92.61	0
2	174986	92.71	0
2	175174	92.81	0
2	175362	92.91	0
2	175556	93.01	0
2	175744	93.11	0
2	175932	93.21	0
2	176120	93.31	0
2	176308	93.41	0
2	176496	93.51	0
2	176684	93.61	0
2	176872	93.71	0
2	177060	93.81	0
2	177248	93.91	0
2	177442	94.01	0
2	177630	94.11	0
2	177818	94.21	0
2	178006	94.31	0
2	178194	94.41	0
2	178382	94.51	0
2	178570	94.61	0
2	178758	94.71	0
2	178946	94.81	0
2	179134	94.91	0
2	179328	95.01	0
2	179516	95.11	0
2	179704	95.21	0
2	179892	95.31	0
2	180080	95.41	0
2	180268	95.51	0
2	180456	95.61	0
2	180644	95.71	0
2	180832	95.81	0
2	181020	95.91	0
2	181214	96.01	0
2	181402	96.11	0
2	181590	96.21	0
2	181778	96.31	0
2	181966	96.41	0
2	182154	96.51	0
2	182342	96.61	0
2	182530	96.71	0
2	182718	96.81	0
2	182906	96.91	0
2	183100	97.01	0
2	183288	97.11	0
2	183476	97.21	0
2	183664	97.31	0
2	183852	97.41	0
2	184040	97.51	0
2	184228	97.61	0
2	184416	97.71	0
2	184604	97.81	0
2	184792	97.91	0
2	184986	98.01	0
2	185174	98.11	0
2	185362	98.21	0
2	185550	98.31	0
2	185738	98.41	0
2	185926	98.51	0
2	186114	98.61	0
2	186302	98.71	0
2	186490	98.81	0
2	186678	98.91	0
2	186872	99.01	0
2	187060	99.11	0
2	187248	99.21	0
2	187436	99.31	0
2	187624	99.41	0
2	187812	99.51	0
2	188000	99.61	0
2	188188	99.71	0
2	188376	99.81	0
2	188564	99.91	0
3	113	1.11	-0.000716383
3	301	1.21	-0.00136341
3	489	1.31	-0.00186974
3	677	1.41	-0.00225157
3	865	1.51	-0.00252443
3	1053	1.61	-0.00270298
3	1241	1.71	-0.00280098
3	1429	1.81	-0.00283113
3	1617	1.91	-0.00280509
3	1811	2.01	-0.00273342
3	1999	2.11	-0.00262559
3	2187	2.21	-0.00249005
3	2375	2.31	-0.00233419
3	2563	2.41	-0.00216447
3	2751	2.51	-0.00198642
3	2939	2.61	-0.00180472
3	3127	2.71	-0.0016233
3	3315	2.81	-0.00144536
3	3503	2.91	-0.00127346
3	3697	3.01	-0.0011096
3	3885	3.11	-0.000955278
3	4073	3.21	-0.000811546
3	4261	3.31	-0.00067908
3	4449	3.41	-0.000558232
3	4637	3.51	-0.000449082
3	4825	3.61	-0.000351487
3	5013	3.71	-0.00026512
3	5201	3.81	-0.000189514
3	5389	3.91	-0.000124092
3	5583	4.01	-6.81972e-05
3	5771	4.11	-2.11209e-05
3	5959	4.21	1.78769e-05
3	6147	4.31	4.9548e-05
3	6335	4.41	7.46407e-05
3	6523	4.51	9.38867e-05
3	6711	4.61	0.000107991
3	6899	4.71	0.000117625
3	7087	4.81	0.000123418
3	7275	4.91	0.000125957
3	7469	5.01	0.000125781
3	7657	5.11	0.00012338
3	7845	5.21	0.000119198
3	8033	5.31	0.000113629
3	8221	5.41	0.000107022
3	8409	5.51	9.96832e-05
3	8597	5.61	9.18747e-05
3	8785	5.71	8.38211e-05
3	8973	5.81	7.57109e-05
3	9161	5.91	6.76999e-05
3	9355	6.01	5.99137e-05
3	9543	6.11	5.24518e-05
3	9731	6.21	4.53896e-05
3	9919	6.31	3.87821e-05
3	10107	6.41	3.2666e-05
3	10295	6.51	2.70628e-05
3	10483	6.61	2.19809e-05
3	10671	6.71	1.74176e-05
3	10859	6.81	1.33618e-05
3	11047	6.91	9.79494e-06
3	11241	7.01	6.6932e-06
3	11429	7.11	4.02864e-06
3	11617	7.21	1.77051e-06
3	11805	7.31	-1.13691e-07
3	11993	7.41	-1.65736e-06
3	12181	7.51	-2.89397e-06
3	12369	7.61	-3.85652e-06
3	12557	7.71	-4.57698e-06
3	12745	7.81	-5.08591e-06
3	12933	7.91	-5.41219e-06
3	13127	8.01	-5.58279e-06
3	13315	8.11	-5.6226e-06
3	13503	8.21	-5.55442e-06
3	13691	8.31	-5.39886e-06
3	13879	8.41	-5.17441e-06
3	14067	8.51	-4.89748e-06
3	14255	8.61	-4.58246e-06
3	14443	8.71	-4.24184e-06
3	14631	8.81	-3.88634e-06
3	14819	8.91	-3.52499e-06
3	15013	9.01	-3.16534e-06
3	15201	9.11	-2.81353e-06
3	15389	9.21	-2.47446e-06
3	15577	9.31	-2.15192e-06
3	15765	9.41	-1.84873e-06
3	15953	9.51	-1.56685e-06
3	16141	9.61	-1.30751e-06
3	16329	9.71	-1.0713e-06
3	16517	9.81	-8.58321e-07
3	16705	9.91	-6.68206e-07
3	16957	10.01	-5.0026e-07
3	17149	10.11	-3.53514e-07
3	17341	10.21	-2.2679e-07
3	17533	10.31	-1.18765e-07
3	17725	10.41	-2.80163e-08
3	17917	10.51	4.6931e-08
3	18109	10.61	1.07573e-07
3	18301	10.71	1.55391e-07
3	18493	10.81	1.91831e-07
3	18685	10.91	2.18284e-07
3	18883	11.01	2.3607e-07
3	19075	11.11	2.46427e-07
3	19267	11.21	2.50502e-07
3	19459	11.31	2.49353e-07
3	19651	11.41	2.43938e-07
3	19843	11.51	2.3512e-07
3	20035	11.61	2.23669e-07
3	20227	11.71	2.10264e-07
3	20419	11.81	1.95496e-07
3	20611	11.91	1.79874e-07
3	20809	12.01	1.63833e-07
3	21001	12.11	1.47736e-07
3	21193	12.21	1.3188e-07
3	21385	12.31	1.16508e-07
3	21577	12.41	1.01807e-07
3	21769	12.51	8.79222e-08
3	21961	12.61	7.49541e-08
3	22153	12.71	6.29711e-08
3	22345	12.81	5.20114e-08
3	22537	12.91	4.20883e-08
3	22735	13.01	3.3193e-08
3	22927	13.11	2.53003e-08
3	23119	13.21	1.83718e-08
3	23311	13.31	1.23581e-08
3	23503	13.41	7.20348e-09
3	23695	13.51	2.84537e-09
3	23887	13.61	-7.80886e-10
3	24079	13.71	-3.74136e-09
3	24271	13.81	-6.10285e-09
3	24463	13.91	-7.93072e-09
3	24661	14.01	-9.28821e-09
3	24853	14.11	-1.0235e-08
3	25045	14.21	-1.08283e-08
3	25237	14.31	-1.11211e-08
3	25429	14.41	-1.11612e-08
3	25621	14.51	-1.09946e-08
3	25813	14.61	-1.06599e-08
3	26005	14.71	-1.01945e-08
3	26197	14.81	-9.62999e-09
3	26389	14.91	-8.99405e-09
3	26587	15.01	-8.31086e-09
3	26779	15.11	-7.60103e-09
3	26971	15.21	-6.88338e-09
3	27163	15.31	-6.17071e-09
3	27355	15.41	-5.47544e-09
3	27547	15.51	-4.80682e-09
3	27739	15.61	-4.17266e-09
3	27931	15.71	-3.57687e-09
3	28123	15.81	-3.02443e-09
3	28315	15.91	-2.51674e-09
3	28513	16.01	-2.05489e-09
3	28705	16.11	-1.63958e-09
3	28897	16.21	-1.26903e-09
3	29089	16.31	-9.42535e-10
3	29281	16.41	-6.57963e-10
3	29473	16.51	-4.1247e-10
3	29665	16.61	-2.04636e-10
3	29857	16.71	-2.91323e-11
3	30049	16.81	1.14753e-10
3	30241	16.91	2.30926e-10
3	30439	17.01	3.22231e-10
3	30631	17.11	3.91154e-10
3	30823	17.21	4.40892e-10
3	31015	17.31	4.73577e-10
3	31207	17.41	4.92051e-10
3	31399	17.51	4.98446e-10
3	31591	17.61	4.94893e-10
3	31783	17.71	4.82814e-10
3	31975	17.81	4.6434e-10
3	32167	17.91	4.40892e-10
3	32365	18.01	4.13536e-10
3	32557	18.11	3.83693e-10
3	32749	18.21	3.51719e-10
3	32941	18.31	3.19744e-10
3	33133	18.41	2.8777e-10
3	33325	18.51	2.55795e-10
3	33517	18.61	2.25953e-10
3	33709	18.71	1.97531e-10
3	33901	18.81	1.6982e-10
3	34093	18.91	1.44951e-10
3	34291	19.01	1.21503e-10
3	34483	19.11	1.00187e-10
3	34675	19.21	8.10019e-11
3	34867	19.31	6.32383e-11
3	35059	19.41	4.86722e-11
3	35251	19.51	3.44613e-11
3	35443	19.61	2.34479e-11
3	35635	19.71	1.27898e-11
3	35827	19.81	4.9738e-12
3	36019	19.91	-2.13163e-12
3	36217	20.01	-8.17124e-12
3	36409	20.11	-1.1724e-11
3	36601	20.21	-1.52767e-11
3	36793	20.31	-1.88294e-11
3	36985	20.41	-2.02505e-11
3	37177	20.51	-2.02505e-11
3	37369	20.61	-2.02505e-11
3	37561	20.71	-2.02505e-11
3	37753	20.81	-2.02505e-11
3	37945	20.91	-2.02505e-11
3	38143	21.01	-2.02505e-11
3	38335	21.11	-2.02505e-11
3	38527	21.21	-2.02505e-11
3	38719	21.31	-1.88294e-11
3	38911	21.41	-1.7053e-11
3	39103	21.51	-1.52767e-11
3	39295	21.61	-1.38556e-11
3	39487	21.71	-1.24345e-11
3	39679	21.81	-1.13687e-11
3	39871	21.91	-1.03029e-11
3	40069	22.01	-9.23706e-12
3	40261	22.11	-8.52651e-12
3	40453	22.21	-7.4607e-12
3	40645	22.31	-6.75016e-12
3	40837	22.41	-6.03961e-12
3	41029	22.51	-5.68434e-12
3	41221	22.61	-4.9738e-12
3	41413	22.71	-4.61853e-12
3	41605	22.81	-4.26326e-12
3	41797	22.91	-3.90799e-12
3	41995	23.01	-3.55271e-12
3	42187	23.11	-3.19744e-12
3	42379	23.21	-2.84217e-12
3	42571	23.31	-2.4869e-12
3	42763	23.41	-2.13163e-12
3	42955	23.51	-2.13163e-12
3	43147	23.61	-1.77636e-12
3	43339	23.71	-1.77636e-12
3	43531	23.81	-1.42109e-12
3	43723	23.91	-1.42109e-12
3	43921	24.01	-1.06581e-12
3	44113	24.11	-1.06581e-12
3	44305	24.21	-1.06581e-12
3	44497	24.31	-1.06581e-12
3	44689	24.41	-7.10543e-13
3	44881	24.51	-7.10543e-13
3	45073	24.61	-7.10543e-13
3	45265	24.71	-7.10543e-13
3	45457	24.81	-7.10543e-13
3	45649	24.91	-3.55271e-13
3	45847	25.01	-3.55271e-13
3	46039	25.11	-3.55271e-13
3	46231	25.21	-3.55271e-13
3	46423	25.31	-3.55271e-13
3	46615	25.41	-3.55271e-13
3	46807	25.51	-3.55271e-13
3	46999	25.61	-3.55271e-13
3	47191	25.71	-3.55271e-13
3	47383	25.81	-3.55271e-13
3	47575	25.91	0
3	47773	26.01	0
3	47965	26.11	0
3	48157	26.21	0
3	48349	26.31	0
3	48541	26.41	0
3	48733	26.51	0
3	48925	26.61	0
3	49117	26.71	0
3	49309	26.81	0
3	49501	26.91	0
3	49699	27.01	0
3	49891	27.11	0
3	50083	27.21	0
3	50275	27.31	0
3	50467	27.41	0
3	50659	27.51	0
3	50851	27.61	0
3	51043	27.71	0
3	51235	27.81	0
3	51427	27.91	0
3	51625	28.01	0
3	51817	28.11	0
3	52009	28.21	0
3	52201	28.31	0
3	52393	28.41	0
3	52585	28.51	0
3	52777	28.61	0
3	52969	28.71	0
3	53161	28.81	0
3	53353	28.91	0
3	53551	29.01	0
3	53743	29.11	0
3	53935	29.21	0
3	54127	29.31	0
3	54319	29.41	0
3	54511	29.51	0
3	54703	29.61	0
3	54895	29.71	0
3	55087	29.81	0
3	55279	29.91	0
3	55477	30.01	0
3	55669	30.11	0
3	55861	30.21	0
3	56053	30.31	0
3	56245	30.41	0
3	56437	30.51	0
3	56629	30.61	0
3	56821	30.71	0
3	57013	30.81	0
3	57205	30.91	0
3	57403	31.01	0
3	57595	31.11	0
3	57787	31.21	0
3	57979	31.31	0
3	58171	31.41	0
3	58363	31.51	0
3	58555	31.61	0
3	58747	31.71	0
3	58939	31.81	0
3	59131	31.91	0
3	59329	32.01	0
3	59521	32.11	0
3	59713	32.21	0
3	59905	32.31	0
3	60097	32.41	0
3	60289	32.51	0
3	60481	32.61	0
3	60673	32.71	0
3	60865	32.81	0
3	61057	32.91	0
3	61255	33.01	0
3	61447	33.11	0
3	61639	33.21	0
3	61831	33.31	0
3	62023	33.41	0
3	62215	33.51	0
3	62407	33.61	0
3	62599	33.71	0
3	62791	33.81	0
3	62983	33.91	0
3	63181	34.01	0
3	63373	34.11	0
3	63565	34.21	0
3	63757	34.31	0
3	63949	34.41	0
3	64141	34.51	0
3	64333	34.61	0
3	64525	34.71	0
3	64717	34.81	0
3	64909	34.91	0
3	65107	35.01	0
3	65299	35.11	0
3	65491	35.21	0
3	65683	35.31	0
3	65875	35.41	0
3	66067	35.51	0
3	66259	35.61	0
3	66451	35.71	0
3	66643	35.81	0
3	66835	35.91	0
3	67033	36.01	0
3	67225	36.11	0
3	67417	36.21	0
3	67609	36.31	0
3	67801	36.41	0
3	67993	36.51	0
3	68185	36.61	0
3	68377	36.71	0
3	68569	36.81	0
3	68761	36.91	0
3	68959	37.01	0
3	69151	37.11	0
3	69343	37.21	0
3	69535	37.31	0
3	69727	37.41	0
3	69919	37.51	0
3	70111	37.61	0
3	70303	37.71	0
3	70495	37.81	0
3	70687	37.91	0
3	70885	38.01	0
3	71077	38.11	0
3	71269	38.21	0
3	71461	38.31	0
3	71653	38.41	0
3	71845	38.51	0
3	72037	38.61	0
3	72229	38.71	0
3	72421	38.81	0
3	72613	38.91	0
3	72811	39.01	0
3	73003	39.11	0
3	73195	39.21	0
3	73387	39.31	0
3	73579	39.41	0
3	73771	39.51	0
3	73963	39.61	0
3	74155	39.71	0
3	74347	39.81	0
3	74539	39.91	0
3	74737	40.01	0
3	74929	40.11	0
3	75121	40.21	0
3	75313	40.31	0
3	75505	40.41	0
3	75697	40.51	0
3	75889	40.61	0
3	76081	40.71	0
3	76273	40.81	0
3	76465	40.91	0
3	76663	41.01	0
3	76855	41.11	0
3	77047	41.21	0
3	77239	41.31	0
3	77431	41.41	0
3	77623	41.51	0
3	77815	41.61	0
3	78007	41.71	0
3	78199	41.81	0
3	78391	41.91	0
3	78589	42.01	0
3	78781	42.11	0
3	78973	42.21	0
3	79165	42.31	0
3	79357	42.41	0
3	79549	42.51	0
3	79741	42.61	0
3	79933	42.71	0
3	80125	42.81	0
3	80317	42.91	0
3	80515	43.01	0
3	80707	43.11	0
3	80899	43.21	0
3	81091	43.31	0
3	81283	43.41	0
3	81475	43.51	0
3	81667	43.61	0
3	81859	43.71	0
3	82051	43.81	0
3	82243	43.91	0
3	82441	44.01	0
3	82633	44.11	0
3	82825	44.21	0
3	83017	44.31	0
3	83209	44.41	0
3	83401	44.51	0
3	83593	44.61	0
3	83785	44.71	0
3	83977	44.81	0
3	84169	44.91	0
3	84367	45.01	0
3	84559	45.11	0
3	84751	45.21	0
3	84943	45.31	0
3	85135	45.41	0
3	85327	45.51	0
3	85519	45.61	0
3	85711	45.71	0
3	85969	45.81	0
3	86160	45.91	0
3	86357	46.01	0
3	86548	46.11	0
3	86739	46.21	0
3	86930	46.31	0
3	87121	46.41	0
3	87312	46.51	0
3	87503	46.61	0
3	87694	46.71	0
3	87885	46.81	0
3	88076	46.91	0
3	88273	47.01	0
3	88464	47.11	0
3	88655	47.21	0
3	88846	47.31	0
3	89037	47.41	0
3	89228	47.51	0
3	89419	47.61	0
3	89610	47.71	0
3	89801	47.81	0
3	90045	47.91	0
3	90241	48.01	0
3	90431	48.11	0
3	90621	48.21	0
3	90811	48.31	0
3	91001	48.41	0
3	91191	48.51	0
3	91381	48.61	0
3	91571	48.71	0
3	91761	48.81	0
3	91951	48.91	0
3	92147	49.01	0
3	92337	49.11	0
3	92527	49.21	0
3	92717	49.31	0
3	92907	49.41	0
3	93097	49.51	0
3	93287	49.61	0
3	93477	49.71	0
3	93667	49.81	0
3	93857	49.91	0
3	94053	50.01	0
3	94243	50.11	0
3	94433	50.21	0
3	94623	50.31	0
3	94813	50.41	0
3	95003	50.51	0
3	95193	50.61	0
3	95383	50.71	0
3	95573	50.81	0
3	95763	50.91	0
3	95959	51.01	0
3	96149	51.11	0
3	96339	51.21	0
3	96529	51.31	0
3	96719	51.41	0
3	96909	51.51	0
3	97099	51.61	0
3	97289	51.71	0
3	97479	51.81	0
3	97669	51.91	0
3	97865	52.01	0
3	98055	52.11	0
3	98245	52.21	0
3	98435	52.31	0
3	98625	52.41	0
3	98815	52.51	0
3	99005	52.61	0
3	99195	52.71	0
3	99385	52.81	0
3	99575	52.91	0
3	99771	53.01	0
3	99961	53.11	0
3	100151	53.21	0
3	100341	53.31	0
3	100531	53.41	0
3	100721	53.51	0
3	100911	53.61	0
3	101101	53.71	0
3	101291	53.81	0
3	101481	53.91	0
3	101677	54.01	0
3	101867	54.11	0
3	102110	54.21	0
3	102299	54.31	0
3	102488	54.41	0
3	102677	54.51	0
3	102866	54.61	0
3	103055	54.71	0
3	103244	54.81	0
3	103433	54.91	0
3	103628	55.01	0
3	103817	55.11	0
3	104006	55.21	0
3	104195	55.31	0
3	104384	55.41	0
3	104573	55.51	0
3	104762	55.61	0
3	104951	55.71	0
3	105140	55.81	0
3	105329	55.91	0
3	105524	56.01	0
3	105713	56.11	0
3	105902	56.21	0
3	106091	56.31	0
3	106280	56.41	0
3	106469	56.51	0
3	106658	56.61	0
3	106847	56.71	0
3	107036	56.81	0
3	107225	56.91	0
3	107420	57.01	0
3	107609	57.11	0
3	107798	57.21	0
3	107987	57.31	0
3	108176	57.41	0
3	108365	57.51	0
3	108554	57.61	0
3	108743	57.71	0
3	108932	57.81	0
3	109121	57.91	0
3	109316	58.01	0
3	109505	58.11	0
3	109694	58.21	0
3	109883	58.31	0
3	110072	58.41	0
3	110261	58.51	0
3	110450	58.61	0
3	110639	58.71	0
3	110828	58.81	0
3	111017	58.91	0
3	111212	59.01	0
3	111401	59.11	0
3	111590	59.21	0
3	111779	59.31	0
3	111968	59.41	0
3	112157	59.51	0
3	112346	59.61	0
3	112535	59.71	0
3	112936	59.81	0
3	113124	59.91	0
3	113318	60.01	0
3	113506	60.11	0
3	113694	60.21	0
3	113882	60.31	0
3	114070	60.41	0
3	114258	60.51	0
3	114446	60.61	0
3	114634	60.71	0
3	114822	60.81	0
3	115010	60.91	0
3	115204	61.01	0
3	115392	61.11	0
3	115580	61.21	0
3	115768	61.31	0
3	115956	61.41	0
3	116144	61.51	0
3	116332	61.61	0
3	116520	61.71	0
3	116708	61.81	0
3	116896	61.91	0
3	117090	62.01	0
3	117278	62.11	0
3	117466	62.21	0
3	117654	62.31	0
3	117842	62.41	0
3	118030	62.51	0
3	118218	62.61	0
3	118406	62.71	0
3	118594	62.81	0
3	118782	62.91	0
3	118976	63.01	0
3	119164	63.11	0
3	119352	63.21	0
3	119540	63.31	0
3	119728	63.41	0
3	119916	63.51	0
3	120104	63.61	0
3	120292	63.71	0
3	120480	63.81	0
3	120668	63.91	0
3	120862	64.01	0
3	121050	64.11	0
3	121238	64.21	0
3	121426	64.31	0
3	121614	64.41	0
3	121802	64.51	0
3	121990	64.61	0
3	122178	64.71	0
3	122366	64.81	0
3	122554	64.91	0
3	122748	65.01	0
3	122936	65.11	0
3	123124	65.21	0
3	123312	65.31	0
3	123500	65.41	0
3	123688	65.51	0
3	123876	65.61	0
3	124064	65.71	0
3	124252	65.81	0
3	124440	65.91	0
3	124634	66.01	0
3	124822	66.11	0
3	125010	66.21	0
3	125198	66.31	0
3	125386	66.41	0
3	125574	66.51	0
3	125762	66.61	0
3	125950	66.71	0
3	126138	66.81	0
3	126326	66.91	0
3	126520	67.01	0
3	126708	67.11	0
3	126896	67.21	0
3	127084	67.31	0
3	127272	67.41	0
3	127460	67.51	0
3	127648	67.61	0
3	127836	67.71	0
3	128024	67.81	0
3	128212	67.91	0
3	128406	68.01	0
3	128594	68.11	0
3	128782	68.21	0
3	128970	68.31	0
3	129158	68.41	0
3	129346	68.51	0
3	129534	68.61	0
3	129722	68.71	0
3	129910	68.81	0
3	130098	68.91	0
3	130292	69.01	0
3	130480	69.11	0
3	130668	69.21	0
3	130856	69.31	0
3	131044	69.41	0
3	131232	69.51	0
3	131420	69.61	0
3	131608	69.71	0
3	131796	69.81	0
3	131984	69.91	0
3	132178	70.01	0
3	132366	70.11	0
3	132554	70.21	0
3	132742	70.31	0
3	132930	70.41	0
3	133118	70.51	0
3	133306	70.61	0
3	133494	70.71	0
3	133682	70.81	0
3	133870	70.91	0
3	134064	71.01	0
3	134252	71.11	0
3	134440	71.21	0
3	134628	71.31	0
3	134816	71.41	0
3	135004	71.51	0
3	135192	71.61	0
3	135380	71.71	0
3	135568	71.81	0
3	135756	71.91	0
3	135950	72.01	0
3	136138	72.11	0
3	136326	72.21	0
3	136514	72.31	0
3	136702	72.41	0
3	136890	72.51	0
3	137078	72.61	0
3	137266	72.71	0
3	137454	72.81	0
3	137642	72.91	0
3	137836	73.01	0
3	138024	73.11	0
3	138212	73.21	0
3	138400	73.31	0
3	138588	73.41	0
3	138776	73.51	0
3	138964	73.61	0
3	139152	73.71	0
3	139340	73.81	0
3	139528	73.91	0
3	139722	74.01	0
3	139910	74.11	0
3	140098	74.21	0
3	140286	74.31	0
3	140474	74.41	0
3	140662	74.51	0
3	140850	74.61	0
3	141038	74.71	0
3	141226	74.81	0
3	141414	74.91	0
3	141608	75.01	0
3	141796	75.11	0
3	141984	75.21	0
3	142172	75.31	0
3	142360	75.41	0
3	142548	75.51	0
3	142736	75.61	0
3	142924	75.71	0
3	143112	75.81	0
3	143300	75.91	0
3	143494	76.01	0
3	143682	76.11	0
3	143870	76.21	0
3	144058	76.31	0
3	144246	76.41	0
3	144434	76.51	0
3	144622	76.61	0
3	144810	76.71	0
3	144998	76.81	0
3	145186	76.91	0
3	145380	77.01	0
3	145568	77.11	0
3	145756	77.21	0
3	145944	77.31	0
3	146132	77.41	0
3	146320	77.51	0
3	146508	77.61	0
3	146696	77.71	0
3	146884	77.81	0
3	147072	77.91	0
3	147266	78.01	0
3	147454	78.11	0
3	147642	78.21	0
3	147830	78.31	0
3	148018	78.41	0
3	148206	78.51	0
3	148394	78.61	0
3	148582	78.71	0
3	148770	78.81	0
3	148958	78.91	0
3	149152	79.01	0
3	149340	79.11	0
3	149528	79.21	0
3	149716	79.31	0
3	149904	79.41	0
3	150092	79.51	0
3	150280	79.61	0
3	150468	79.71	0
3	150656	79.81	0
3	150844	79.91	0
3	151038	80.01	0
3	151226	80.11	0
3	151414	80.21	0
3	151602	80.31	0
3	151790	80.41	0
3	151978	80.51	0
3	152166	80.61	0
3	152354	80.71	0
3	152542	80.81	0
3	152730	80.91	0
3	152924	81.01	0
3	153112	81.11	0
3	153300	81.21	0
3	153488	81.31	0
3	153676	81.41	0
3	153864	81.51	0
3	154052	81.61	0
3	154240	81.71	0
3	154428	81.81	0
3	154616	81.91	0
3	154810	82.01	0
3	154998	82.11	0
3	155186	82.21	0
3	155374	82.31	0
3	155562	82.41	0
3	155750	82.51	0
3	155938	82.61	0
3	156126	82.71	0
3	156314	82.81	0
3	156502	82.91	0
3	156696	83.01	0
3	156884	83.11	0
3	157072	83.21	0
3	157260	83.31	0
3	157448	83.41	0
3	157636	83.51	0
3	157824	83.61	0
3	158012	83.71	0
3	158200	83.81	0
3	158388	83.91	0
3	158582	84.01	0
3	158770	84.11	0
3	158958	84.21	0
3	159146	84.31	0
3	159334	84.41	0
3	159522	84.51	0
3	159710	84.61	0
3	159898	84.71	0
3	160086	84.81	0
3	160274	84.91	0
3	160468	85.01	0
3	160656	85.11	0
3	160844	85.21	0
3	161032	85.31	0
3	161220	85.41	0
3	161408	85.51	0
3	161596	85.61	0
3	161784	85.71	0
3	161972	85.81	0
3	162160	85.91	0
3	162354	86.01	0
3	162542	86.11	0
3	162730	86.21	0
3	162918	86.31	0
3	163106	86.41	0
3	163294	86.51	0
3	163482	86.61	0
3	163670	86.71	0
3	163858	86.81	0
3	164046	86.91	0
3	164240	87.01	0
3	164428	87.11	0
3	164616	87.21	0
3	164804	87.31	0
3	164992	87.41	0
3	165180	87.51	0
3	165368	87.61	0
3	165556	87.71	0
3	165744	87.81	0
3	165932	87.91	0
3	166126	88.01	0
3	166314	88.11	0
3	166502	88.21	0
3	166690	88.31	0
3	166878	88.41	0
3	167066	88.51	0
3	167254	88.61	0
3	167442	88.71	0
3	167630	88.81	0
3	167818	88.91	0
3	168012	89.01	0
3	168200	89.11	0
3	168388	89.21	0
3	168576	89.31	0
3	168764	89.41	0
3	168952	89.51	0
3	169140	89.61	0
3	169328	89.71	0
3	169516	89.81	0
3	169704	89.91	0
3	169898	90.01	0
3	170086	90.11	0
3	170274	90.21	0
3	170462	90.31	0
3	170650	90.41	0
3	170838	90.51	0
3	171026	90.61	0
3	171214	90.71	0
3	171402	90.81	0
3	171590	90.91	0
3	171784	91.01	0
3	171972	91.11	0
3	172160	91.21	0
3	172348	91.31	0
3	172536	91.41	0
3	172724	91.51	0
3	172912	91.61	0
3	173100	91.71	0
3	173288	91.81	0
3	173476	91.91	0
3	173670	92.01	0
3	173858	92.11	0
3	174046	92.21	0
3	174234	92.31	0
3	174422	92.41	0
3	174610	92.51	0
3	174798	92.61	0
3	174986	92.71	0
3	175174	92.81	0
3	175362	92.91	0
3	175556	93.01	0
3	175744	93.11	0
3	175932	93.21	0
3	176120	93.31	0
3	176308	93.41	0
3	176496	93.51	0
3	176684	93.61	0
3	176872	93.71	0
3	177060	93.81	0
3	177248	93.91	0
3	177442	94.01	0
3	177630	94.11	0
3	177818	94.21	0
3	178006	94.31	0
3	178194	94.41	0
3	178382	94.51	0
3	178570	94.61	0
3	178758	94.71	0
3	178946	94.81	0
3	179134	94.91	0
3	179328	95.01	0
3	179516	95.11	0
3	179704	95.21	0
3	179892	95.31	0
3	180080	95.41	0
3	180268	95.51	0
3	180456	95.61	0
3	180644	95.71	0
3	180832	95.81	0
3	181020	95.91	0
3	181214	96.01	0
3	181402	96.11	0
3	181590	96.21	0
3	181778	96.31	0
3	181966	96.41	0
3	182154	96.51	0
3	182342	96.61	0
3	182530	96.71	0
3	182718	96.81	0
3	182906	96.91	0
3	183100	97.01	0
3	183288	97.11	0
3	183476	97.21	0
3	183664	97.31	0
3	183852	97.41	0
3	184040	97.51	0
3	184228	97.61	0
3	184416	97.71	0
3	184604	97.81	0
3	184792	97.91	0
3	184986	98.01	0
3	185174	98.11	0
3	185362	98.21	0
3	185550	98.31	0
3	185738	98.41	0
3	185926	98.51	0
3	186114	98.61	0
3	186302	98.71	0
3	186490	98.81	0
3	186678	98.91	0
3	186872	99.01	0
3	187060	99.11	0
3	187248	99.21	0
3	187436	99.31	0
3	187624	99.41	0
3	187812	99.51	0
3	188000	99.61	0
3	188188	99.71	0
3	188376	99.81	0
3	188564	99.91	0
4	113	1.11	-0.00437036
4	301	1.21	-0.00426837
4	489	1.31	-0.00410815
4	677	1.41	-0.00390303
4	865	1.51	-0.00366476
4	1053	1.61	-0.00340356
4	1241	1.71	-0.00312825
4	1429	1.81	-0.00284628
4	1617	1.91	-0.00256392
4	1811	2.01	-0.0022863
4	1999	2.11	-0.00201755
4	2187	2.21	-0.00176089
4	2375	2.31	-0.00151876
4	2563	2.41	-0.00129289
4	2751	2.51	-0.00108441
4	2939	2.61	-0.00089393
4	3127	2.71	-0.000721638
4	3315	2.81	-0.000567355
4	3503	2.91	-0.000430614
4	3697	3.01	-0.000310715
4	3885	3.11	-0.000206783
4	4073	3.21	-0.000117814
4	4261	3.31	-4.27149e-05
4	4449	3.41	1.96584e-05
4	4637	3.51	7.04736e-05
4	4825	3.61	0.000110896
4	5013	3.71	0.000142067
4	5201	3.81	0.00016509
4	5389	3.91	0.000181016
4	5583	4.01	0.000190834
4	5771	4.11	0.000195466
4	5959	4.21	0.00019576
4	6147	4.31	0.000192489
4	6335	4.41	0.000186354
4	6523	4.51	0.000177979
4	6711	4.61	0.000167916
4	6899	4.71	0.000156649
4	7087	4.81	0.000144597
4	7275	4.91	0.000132116
4	7469	5.01	0.000119508
4	7657	5.11	0.000107021
4	7845	5.21	9.48587e-05
4	8033	5.31	8.31796e-05
4	8221	5.41	7.21068e-05
4	8409	5.51	6.17299e-05
4	8597	5.61	5.21101e-05
4	8785	5.71	4.32839e-05
4	8973	5.81	3.52669e-05
4	9161	5.91	2.80577e-05
4	9355	6.01	2.16404e-05
4	9543	6.11	1.59878e-05
4	9731	6.21	1.1064e-05
4	9919	6.31	6.82631e-06
4	10107	6.41	3.22748e-06
4	10295	6.51	2.17307e-07
4	10483	6.61	-2.25598e-06
4	10671	6.71	-4.24448e-06
4	10859	6.81	-5.79961e-06
4	11047	6.91	-6.97134e-06
4	11241	7.01	-7.80753e-06
4	11429	7.11	-8.35346e-06
4	11617	7.21	-8.65149e-06
4	11805	7.31	-8.7408e-06
4	11993	7.41	-8.6573e-06
4	12181	7.51	-8.43352e-06
4	12369	7.61	-8.09868e-06
4	12557	7.71	-7.67874e-06
4	12745	7.81	-7.19651e-06
4	12933	7.91	-6.67185e-06
4	13127	8.01	-6.12177e-06
4	13315	8.11	-5.56072e-06
4	13503	8.21	-5.00073e-06
4	13691	8.31	-4.45164e-06
4	13879	8.41	-3.92136e-06
4	14067	8.51	-3.41601e-06
4	14255	8.61	-2.94018e-06
4	14443	8.71	-2.4971e-06
4	14631	8.81	-2.08883e-06
4	14819	8.91	-1.71644e-06
4	15013	9.01	-1.38016e-06
4	15201	9.11	-1.07955e-06
4	15389	9.21	-8.13576e-07
4	15577	9.31	-5.80794e-07
[...]
69	124628	66	0
69	126514	67	0
69	128400	68	0
69	130286	69	0
69	132172	70	0
69	134058	71	0
69	135944	72	0
69	137830	73	0
69	139716	74	0
69	141602	75	0
69	143488	76	0
69	145374	77	0
69	147260	78	0
69	149146	79	0
69	151032	80	0
69	152918	81	0
69	154804	82	0
69	156690	83	0
69	158576	84	0
69	160462	85	0
69	162348	86	0
69	164234	87	0
69	166120	88	0
69	168006	89	0
69	169892	90	0
69	171778	91	0
69	173664	92	0
69	175550	93	0
69	177436	94	0
69	179322	95	0
69	181208	96	0
69	183094	97	0
69	184980	98	0
69	186866	99	0
69	188752	100	0
70	1806	2	2
70	3692	3	2
70	5578	4	2
70	7464	5	2
70	9350	6	2
70	11236	7	2
70	13122	8	2
70	15008	9	2
70	16896	10	2
70	18874	11	2
70	20800	12	2
70	22726	13	2
70	24652	14	2
70	26578	15	2
70	28504	16	2
70	30430	17	2
70	32356	18	2
70	34282	19	2
70	36208	20	2
70	38134	21	2
70	40060	22	2
70	41986	23	2
70	43912	24	2
70	45838	25	2
70	47764	26	2
70	49690	27	2
70	51616	28	2
70	53542	29	2
70	55468	30	2
70	57394	31	2
70	59320	32	2
70	61246	33	2
70	63172	34	2
70	65098	35	2
70	67024	36	2
70	68950	37	2
70	70876	38	2
70	72802	39	2
70	74728	40	2
70	76654	41	2
70	78580	42	2
70	80506	43	2
70	82432	44	2
70	84358	45	2
70	86349	46	2
70	88265	47	2
70	90234	48	2
70	92140	49	2
70	94046	50	2
70	95952	51	2
70	97858	52	2
70	99764	53	2
70	101670	54	2
70	103622	55	2
70	105518	56	2
70	107414	57	2
70	109310	58	2
70	111206	59	2
70	113313	60	2
70	115199	61	2
70	117085	62	2
70	118971	63	2
70	120857	64	2
70	122743	65	2
70	124629	66	2
70	126515	67	2
70	128401	68	2
70	130287	69	2
70	132173	70	2
70	134059	71	2
70	135945	72	2
70	137831	73	2
70	139717	74	2
70	141603	75	2
70	143489	76	2
70	145375	77	2
70	147261	78	2
70	149147	79	2
70	151033	80	2
70	152919	81	2
70	154805	82	2
70	156691	83	2
70	158577	84	2
70	160463	85	2
70	162349	86	2
70	164235	87	2
70	166121	88	2
70	168007	89	2
70	169893	90	2
70	171779	91	2
70	173665	92	2
70	175551	93	2
70	177437	94	2
70	179323	95	2
70	181209	96	2
70	183095	97	2
70	184981	98	2
70	186867	99	2
70	188753	100	2
71	1806	2	0.011241
71	3692	3	0.01249
71	5578	4	0.01249
71	7464	5	0.01249
71	9350	6	0.01249
71	11236	7	0.01249
71	13122	8	0.01249
71	15008	9	0.01249
71	16896	10	0.01249
71	18874	11	0.012538
71	20800	12	0.01249
71	22726	13	0.01249
71	24652	14	0.01249
71	26578	15	0.01249
71	28504	16	0.01249
71	30430	17	0.01249
71	32356	18	0.01249
71	34282	19	0.01249
71	36208	20	0.01249
71	38134	21	0.01249
71	40060	22	0.01249
71	41986	23	0.01249
71	43912	24	0.01249
71	45838	25	0.01249
71	47764	26	0.01249
71	49690	27	0.01249
71	51616	28	0.01249
71	53542	29	0.01249
71	55468	30	0.01249
71	57394	31	0.01249
71	59320	32	0.01249
71	61246	33	0.01249
71	63172	34	0.01249
71	65098	35	0.01249
71	67024	36	0.01249
71	68950	37	0.01249
71	70876	38	0.01249
71	72802	39	0.01249
71	74728	40	0.01249
71	76654	41	0.01249
71	78580	42	0.01249
71	80506	43	0.01249
71	82432	44	0.01249
71	84358	45	0.01249
71	86349	46	0.01249
71	88265	47	0.01249
71	90234	48	0.012602
71	92140	49	0.01249
71	94046	50	0.01249
71	95952	51	0.01249
71	97858	52	0.01249
71	99764	53	0.01249
71	101670	54	0.01249
71	103622	55	0.01263531931
71	105518	56	0.01249
71	107414	57	0.01249
71	109310	58	0.01249
71	111206	59	0.01249
71	113313	60	0.01297
71	115199	61	0.01249
71	117085	62	0.01249
71	118971	63	0.01249
71	120857	64	0.01249
71	122743	65	0.01249
71	124629	66	0.01249
71	126515	67	0.01249
71	128401	68	0.01249
71	130287	69	0.01249
71	132173	70	0.01249
71	134059	71	0.01249
71	135945	72	0.01249
71	137831	73	0.01249
71	139717	74	0.01249
71	141603	75	0.01249
71	143489	76	0.01249
71	145375	77	0.01249
71	147261	78	0.01249
71	149147	79	0.01249
71	151033	80	0.01249
71	152919	81	0.01249
71	154805	82	0.01249
71	156691	83	0.01249
71	158577	84	0.01249
71	160463	85	0.01249
71	162349	86	0.01249
71	164235	87	0.01249
71	166121	88	0.01249
71	168007	89	0.01249
71	169893	90	0.01249
71	171779	91	0.01249
71	173665	92	0.01249
71	175551	93	0.01249
71	177437	94	0.01249
71	179323	95	0.01249
71	181209	96	0.01249
71	183095	97	0.01249
71	184981	98	0.01249
71	186867	99	0.01249
71	188753	100	0.01249
72	1806	2	0
72	3692	3	0
72	5578	4	0
72	7464	5	0
72	9350	6	0
72	11236	7	0
72	13122	8	0
72	15008	9	0
72	16896	10	0
72	18874	11	0
72	20800	12	0
72	22726	13	0
72	24652	14	0
72	26578	15	0
72	28504	16	0
72	30430	17	0
72	32356	18	0
72	34282	19	0
72	36208	20	0
72	38134	21	0
72	40060	22	0
72	41986	23	0
72	43912	24	0
72	45838	25	0
72	47764	26	0
72	49690	27	0
72	51616	28	0
72	53542	29	0
72	55468	30	0
72	57394	31	0
72	59320	32	0
72	61246	33	0
72	63172	34	0
72	65098	35	0
72	67024	36	0
72	68950	37	0
72	70876	38	0
72	72802	39	0
72	74728	40	0
72	76654	41	0
72	78580	42	0
72	80506	43	0
72	82432	44	0
72	84358	45	0
72	86349	46	0
72	88265	47	0
72	90234	48	0
72	92140	49	0
72	94046	50	0
72	95952	51	0
72	97858	52	0
72	99764	53	0
72	101670	54	0
72	103622	55	0
72	105518	56	0
72	107414	57	0
72	109310	58	0
72	111206	59	0
72	113313	60	0
72	115199	61	0
72	117085	62	0
72	118971	63	0
72	120857	64	0
72	122743	65	0
72	124629	66	0
72	126515	67	0
72	128401	68	0
72	130287	69	0
72	132173	70	0
72	134059	71	0
72	135945	72	0
72	137831	73	0
72	139717	74	0
72	141603	75	0
72	143489	76	0
72	145375	77	0
72	147261	78	0
72	149147	79	0
72	151033	80	0
72	152919	81	0
72	154805	82	0
72	156691	83	0
72	158577	84	0
72	160463	85	0
72	162349	86	0
72	164235	87	0
72	166121	88	0
72	168007	89	0
72	169893	90	0
72	171779	91	0
72	173665	92	0
72	175551	93	0
72	177437	94	0
72	179323	95	0
72	181209	96	0
72	183095	97	0
72	184981	98	0
72	186867	99	0
72	188753	100	0
73	1807	2	3
73	3693	3	3
73	5579	4	3
73	7465	5	3
73	9351	6	3
73	11237	7	3
73	13123	8	3
73	15009	9	3
73	16897	10	3
73	18875	11	3
73	20801	12	3
73	22727	13	3
73	24653	14	3
73	26579	15	3
73	28505	16	3
73	30431	17	3
73	32357	18	3
73	34283	19	3
73	36209	20	3
73	38135	21	3
73	40061	22	3
73	41987	23	3
73	43913	24	3
73	45839	25	3
73	47765	26	3
73	49691	27	3
73	51617	28	3
73	53543	29	3
73	55469	30	3
73	57395	31	3
73	59321	32	3
73	61247	33	3
73	63173	34	3
73	65099	35	3
73	67025	36	3
73	68951	37	3
73	70877	38	3
73	72803	39	3
73	74729	40	3
73	76655	41	3
73	78581	42	3
73	80507	43	3
73	82433	44	3
73	84359	45	3
73	86350	46	3
73	88266	47	3
73	90235	48	3
73	92141	49	3
73	94047	50	3
73	95953	51	3
73	97859	52	3
73	99765	53	3
73	101671	54	3
73	103623	55	3
73	105519	56	3
73	107415	57	3
73	109311	58	3
73	111207	59	3
73	113314	60	3
73	115200	61	3
73	117086	62	3
73	118972	63	3
73	120858	64	3
73	122744	65	3
73	124630	66	3
73	126516	67	3
73	128402	68	3
73	130288	69	3
73	132174	70	3
73	134060	71	3
73	135946	72	3
73	137832	73	3
73	139718	74	3
73	141604	75	3
73	143490	76	3
73	145376	77	3
73	147262	78	3
73	149148	79	3
73	151034	80	3
73	152920	81	3
73	154806	82	3
73	156692	83	3
73	158578	84	3
73	160464	85	3
73	162350	86	3
73	164236	87	3
73	166122	88	3
73	168008	89	3
73	169894	90	3
73	171780	91	3
73	173666	92	3
73	175552	93	3
73	177438	94	3
73	179324	95	3
73	181210	96	3
73	183096	97	3
73	184982	98	3
73	186868	99	3
73	188754	100	3
74	1807	2	0.011241
74	3693	3	0.01249
74	5579	4	0.01249
74	7465	5	0.01249
74	9351	6	0.01249
74	11237	7	0.01249
74	13123	8	0.01249
74	15009	9	0.01249
74	16897	10	0.01249
74	18875	11	0.012538
74	20801	12	0.01249
74	22727	13	0.01249
74	24653	14	0.01249
74	26579	15	0.01249
74	28505	16	0.01249
74	30431	17	0.01249
74	32357	18	0.01249
74	34283	19	0.01249
74	36209	20	0.01249
74	38135	21	0.01249
74	40061	22	0.01249
74	41987	23	0.01249
74	43913	24	0.01249
74	45839	25	0.01249
74	47765	26	0.01249
74	49691	27	0.01249
74	51617	28	0.01249
74	53543	29	0.01249
74	55469	30	0.01249
74	57395	31	0.01249
74	59321	32	0.01249
74	61247	33	0.01249
74	63173	34	0.01249
74	65099	35	0.01249
74	67025	36	0.01249
74	68951	37	0.01249
74	70877	38	0.01249
74	72803	39	0.01249
74	74729	40	0.01249
74	76655	41	0.01249
74	78581	42	0.01249
74	80507	43	0.01249
74	82433	44	0.01249
74	84359	45	0.01249
74	86350	46	0.01249
74	88266	47	0.01249
74	90235	48	0.012602
74	92141	49	0.01249
74	94047	50	0.01249
74	95953	51	0.01249
74	97859	52	0.01249
74	99765	53	0.01249
74	101671	54	0.01249
74	103623	55	0.012602
74	105519	56	0.01249
74	107415	57	0.01249
74	109311	58	0.01249
74	111207	59	0.01249
74	113314	60	0.013003479264
74	115200	61	0.01249
74	117086	62	0.01249
74	118972	63	0.01249
74	120858	64	0.01249
74	122744	65	0.01249
74	124630	66	0.01249
74	126516	67	0.01249
74	128402	68	0.01249
74	130288	69	0.01249
74	132174	70	0.01249
74	134060	71	0.01249
74	135946	72	0.01249
74	137832	73	0.01249
74	139718	74	0.01249
74	141604	75	0.01249
74	143490	76	0.01249
74	145376	77	0.01249
74	147262	78	0.01249
74	149148	79	0.01249
74	151034	80	0.01249
74	152920	81	0.01249
74	154806	82	0.01249
74	156692	83	0.01249
74	158578	84	0.01249
74	160464	85	0.01249
74	162350	86	0.01249
74	164236	87	0.01249
74	166122	88	0.01249
74	168008	89	0.01249
74	169894	90	0.01249
74	171780	91	0.01249
74	173666	92	0.01249
74	175552	93	0.01249
74	177438	94	0.01249
74	179324	95	0.01249
74	181210	96	0.01249
74	183096	97	0.01249
74	184982	98	0.01249
74	186868	99	0.01249
74	188754	100	0.01249
75	1807	2	0
75	3693	3	0
75	5579	4	0
75	7465	5	0
75	9351	6	0
75	11237	7	0
75	13123	8	0
75	15009	9	0
75	16897	10	0
75	18875	11	0
75	20801	12	0
75	22727	13	0
75	24653	14	0
75	26579	15	0
75	28505	16	0
75	30431	17	0
75	32357	18	0
75	34283	19	0
75	36209	20	0
75	38135	21	0
75	40061	22	0
75	41987	23	0
75	43913	24	0
75	45839	25	0
75	47765	26	0
75	49691	27	0
75	51617	28	0
75	53543	29	0
75	55469	30	0
75	57395	31	0
75	59321	32	0
75	61247	33	0
75	63173	34	0
75	65099	35	0
75	67025	36	0
75	68951	37	0
75	70877	38	0
75	72803	39	0
75	74729	40	0
75	76655	41	0
75	78581	42	0
75	80507	43	0
75	82433	44	0
75	84359	45	0
75	86350	46	0
75	88266	47	0
75	90235	48	0
75	92141	49	0
75	94047	50	0
75	95953	51	0
75	97859	52	0
75	99765	53	0
75	101671	54	0
75	103623	55	0
75	105519	56	0
75	107415	57	0
75	109311	58	0
75	111207	59	0
75	113314	60	0
75	115200	61	0
75	117086	62	0
75	118972	63	0
75	120858	64	0
75	122744	65	0
75	124630	66	0
75	126516	67	0
75	128402	68	0
75	130288	69	0
75	132174	70	0
75	134060	71	0
75	135946	72	0
75	137832	73	0
75	139718	74	0
75	141604	75	0
75	143490	76	0
75	145376	77	0
75	147262	78	0
75	149148	79	0
75	151034	80	0
75	152920	81	0
75	154806	82	0
75	156692	83	0
75	158578	84	0
75	160464	85	0
75	162350	86	0
75	164236	87	0
75	166122	88	0
75	168008	89	0
75	169894	90	0
75	171780	91	0
75	173666	92	0
75	175552	93	0
75	177438	94	0
75	179324	95	0
75	181210	96	0
75	183096	97	0
75	184982	98	0
75	186868	99	0
75	188754	100	0
76	1808	2	4
76	3694	3	4
76	5580	4	4
76	7466	5	4
76	9352	6	4
76	11238	7	4
76	13124	8	4
76	15010	9	4
76	16898	10	4
76	18876	11	4
76	20802	12	4
76	22728	13	4
76	24654	14	4
76	26580	15	4
76	28506	16	4
76	30432	17	4
76	32358	18	4
76	34284	19	4
76	36210	20	4
76	38136	21	4
76	40062	22	4
76	41988	23	4
76	43914	24	4
76	45840	25	4
76	47766	26	4
76	49692	27	4
76	51618	28	4
76	53544	29	4
76	55470	30	4
76	57396	31	4
76	59322	32	4
76	61248	33	4
76	63174	34	4
76	65100	35	4
76	67026	36	4
76	68952	37	4
76	70878	38	4
76	72804	39	4
76	74730	40	4
76	76656	41	4
76	78582	42	4
76	80508	43	4
76	82434	44	4
76	84360	45	4
76	86351	46	4
76	88267	47	4
76	90236	48	4
76	92142	49	4
76	94048	50	4
76	95954	51	4
76	97860	52	4
76	99766	53	4
76	101672	54	4
76	103624	55	4
76	105520	56	4
76	107416	57	4
76	109312	58	4
76	111208	59	4
76	113315	60	4
76	115201	61	4
76	117087	62	4
76	118973	63	4
76	120859	64	4
76	122745	65	4
76	124631	66	4
76	126517	67	4
76	128403	68	4
76	130289	69	4
76	132175	70	4
76	134061	71	4
76	135947	72	4
76	137833	73	4
76	139719	74	4
76	141605	75	4
76	143491	76	4
76	145377	77	4
76	147263	78	4
76	149149	79	4
76	151035	80	4
76	152921	81	4
76	154807	82	4
76	156693	83	4
76	158579	84	4
76	160465	85	4
76	162351	86	4
76	164237	87	4
76	166123	88	4
76	168009	89	4
76	169895	90	4
76	171781	91	4
76	173667	92	4
76	175553	93	4
76	177439	94	4
76	179325	95	4
76	181211	96	4
76	183097	97	4
76	184983	98	4
76	186869	99	4
76	188755	100	4
77	1808	2	0.005625
77	3694	3	0.00625
77	5580	4	0.00625
77	7466	5	0.00625
77	9352	6	0.00625
77	11238	7	0.00625
77	13124	8	0.00625
77	15010	9	0.00625
77	16898	10	0.00625
77	18876	11	0.006299
77	20802	12	0.00625
77	22728	13	0.00625
77	24654	14	0.00625
77	26580	15	0.00625
77	28506	16	0.00625
77	30432	17	0.00625
77	32358	18	0.00625
77	34284	19	0.00625
77	36210	20	0.00625
77	38136	21	0.00625
77	40062	22	0.00625
77	41988	23	0.00625
77	43914	24	0.00625
77	45840	25	0.00625
77	47766	26	0.00625
77	49692	27	0.00625
77	51618	28	0.00625
77	53544	29	0.00625
77	55470	30	0.00625
77	57396	31	0.00625
77	59322	32	0.00625
77	61248	33	0.00625
77	63174	34	0.00625
77	65100	35	0.00625
77	67026	36	0.00625
77	68952	37	0.00625
77	70878	38	0.00625
77	72804	39	0.00625
77	74730	40	0.00625
77	76656	41	0.00625
77	78582	42	0.00625
77	80508	43	0.00625
77	82434	44	0.00625
77	84360	45	0.00625
77	86351	46	0.00653912609
77	88267	47	0.00625
77	90236	48	0.00625
77	92142	49	0.00625
77	94048	50	0.00625
77	95954	51	0.00625
77	97860	52	0.00625
77	99766	53	0.00625
77	101672	54	0.00625
77	103624	55	0.00625
77	105520	56	0.00625
77	107416	57	0.00625
77	109312	58	0.00625
77	111208	59	0.00625
77	113315	60	0.00625
77	115201	61	0.00625
77	117087	62	0.00625
77	118973	63	0.00625
77	120859	64	0.00625
77	122745	65	0.00625
77	124631	66	0.00625
77	126517	67	0.00625
77	128403	68	0.00625
77	130289	69	0.00625
77	132175	70	0.00625
77	134061	71	0.00625
77	135947	72	0.00625
77	137833	73	0.00625
77	139719	74	0.00625
77	141605	75	0.00625
77	143491	76	0.00625
77	145377	77	0.00625
77	147263	78	0.00625
77	149149	79	0.00625
77	151035	80	0.00625
77	152921	81	0.00625
77	154807	82	0.00625
77	156693	83	0.00625
77	158579	84	0.00625
77	160465	85	0.00625
77	162351	86	0.00625
77	164237	87	0.00625
77	166123	88	0.00625
77	168009	89	0.00625
77	169895	90	0.00625
77	171781	91	0.00625
77	173667	92	0.00625
77	175553	93	0.00625
77	177439	94	0.00625
77	179325	95	0.00625
77	181211	96	0.00625
77	183097	97	0.00625
77	184983	98	0.00625
77	186869	99	0.00625
77	188755	100	0.00625
78	1808	2	0
78	3694	3	0
78	5580	4	0
78	7466	5	0
78	9352	6	0
78	11238	7	0
78	13124	8	0
78	15010	9	0
78	16898	10	0
78	18876	11	0
78	20802	12	0
78	22728	13	0
78	24654	14	0
78	26580	15	0
78	28506	16	0
78	30432	17	0
78	32358	18	0
78	34284	19	0
78	36210	20	0
78	38136	21	0
78	40062	22	0
78	41988	23	0
78	43914	24	0
78	45840	25	0
78	47766	26	0
78	49692	27	0
78	51618	28	0
78	53544	29	0
78	55470	30	0
78	57396	31	0
78	59322	32	0
78	61248	33	0
78	63174	34	0
78	65100	35	0
78	67026	36	0
78	68952	37	0
78	70878	38	0
78	72804	39	0
78	74730	40	0
78	76656	41	0
78	78582	42	0
78	80508	43	0
78	82434	44	0
78	84360	45	0
78	86351	46	0
78	88267	47	0
78	90236	48	0
78	92142	49	0
78	94048	50	0
78	95954	51	0
78	97860	52	0
78	99766	53	0
78	101672	54	0
78	103624	55	0
78	105520	56	0
78	107416	57	0
78	109312	58	0
78	111208	59	0
78	113315	60	0
78	115201	61	0
78	117087	62	0
78	118973	63	0
78	120859	64	0
78	122745	65	0
78	124631	66	0
78	126517	67	0
78	128403	68	0
78	130289	69	0
78	132175	70	0
78	134061	71	0
78	135947	72	0
78	137833	73	0
78	139719	74	0
78	141605	75	0
78	143491	76	0
78	145377	77	0
78	147263	78	0
78	149149	79	0
78	151035	80	0
78	152921	81	0
78	154807	82	0
78	156693	83	0
78	158579	84	0
78	160465	85	0
78	162351	86	0
78	164237	87	0
78	166123	88	0
78	168009	89	0
78	169895	90	0
78	171781	91	0
78	173667	92	0
78	175553	93	0
78	177439	94	0
78	179325	95	0
78	181211	96	0
78	183097	97	0
78	184983	98	0
78	186869	99	0
78	188755	100	0
79	1809	2	5
79	3695	3	5
79	5581	4	5
79	7467	5	5
79	9353	6	5
79	11239	7	5
79	13125	8	5
79	15011	9	5
79	16899	10	5
79	18877	11	5
79	20803	12	5
79	22729	13	5
79	24655	14	5
79	26581	15	5
79	28507	16	5
79	30433	17	5
79	32359	18	5
79	34285	19	5
79	36211	20	5
79	38137	21	5
79	40063	22	5
79	41989	23	5
79	43915	24	5
79	45841	25	5
79	47767	26	5
79	49693	27	5
79	51619	28	5
79	53545	29	5
79	55471	30	5
79	57397	31	5
79	59323	32	5
79	61249	33	5
79	63175	34	5
79	65101	35	5
79	67027	36	5
79	68953	37	5
79	70879	38	5
79	72805	39	5
79	74731	40	5
79	76657	41	5
79	78583	42	5
79	80509	43	5
79	82435	44	5
79	84361	45	5
79	86352	46	5
79	88268	47	5
79	90237	48	5
79	92143	49	5
79	94049	50	5
79	95955	51	5
79	97861	52	5
79	99767	53	5
79	101673	54	5
79	103625	55	5
79	105521	56	5
79	107417	57	5
79	109313	58	5
79	111209	59	5
79	113316	60	5
79	115202	61	5
79	117088	62	5
79	118974	63	5
79	120860	64	5
79	122746	65	5
79	124632	66	5
79	126518	67	5
79	128404	68	5
79	130290	69	5
79	132176	70	5
79	134062	71	5
79	135948	72	5
79	137834	73	5
79	139720	74	5
79	141606	75	5
79	143492	76	5
79	145378	77	5
79	147264	78	5
79	149150	79	5
79	151036	80	5
79	152922	81	5
79	154808	82	5
79	156694	83	5
79	158580	84	5
79	160466	85	5
79	162352	86	5
79	164238	87	5
79	166124	88	5
79	168010	89	5
79	169896	90	5
79	171782	91	5
79	173668	92	5
79	175554	93	5
79	177440	94	5
79	179326	95	5
79	181212	96	5
79	183098	97	5
79	184984	98	5
79	186870	99	5
79	188756	100	5
80	1809	2	0.005625
80	3695	3	0.00625
80	5581	4	0.00625
80	7467	5	0.00625
80	9353	6	0.00625
80	11239	7	0.00625
80	13125	8	0.00625
80	15011	9	0.00625
80	16899	10	0.00625
80	18877	11	0.006298
80	20803	12	0.00625
80	22729	13	0.00625
80	24655	14	0.00625
80	26581	15	0.00625
80	28507	16	0.00625
80	30433	17	0.00625
80	32359	18	0.00625
80	34285	19	0.00625
80	36211	20	0.00625
80	38137	21	0.00625
80	40063	22	0.00625
80	41989	23	0.00625
80	43915	24	0.00625
80	45841	25	0.00625
80	47767	26	0.00625
80	49693	27	0.00625
80	51619	28	0.00625
80	53545	29	0.00625
80	55471	30	0.00625
80	57397	31	0.00625
80	59323	32	0.00625
80	61249	33	0.00625
80	63175	34	0.00625
80	65101	35	0.00625
80	67027	36	0.00625
80	68953	37	0.00625
80	70879	38	0.00625
80	72805	39	0.00625
80	74731	40	0.00625
80	76657	41	0.00625
80	78583	42	0.00625
80	80509	43	0.00625
80	82435	44	0.00625
80	84361	45	0.00625
80	86352	46	0.00653912609
80	88268	47	0.00625
80	90237	48	0.00625
80	92143	49	0.00625
80	94049	50	0.00625
80	95955	51	0.00625
80	97861	52	0.00625
80	99767	53	0.00625
80	101673	54	0.00625
80	103625	55	0.00625
80	105521	56	0.00625
80	107417	57	0.00625
80	109313	58	0.00625
80	111209	59	0.00625
80	113316	60	0.00625
80	115202	61	0.00625
80	117088	62	0.00625
80	118974	63	0.00625
80	120860	64	0.00625
80	122746	65	0.00625
80	124632	66	0.00625
80	126518	67	0.00625
80	128404	68	0.00625
80	130290	69	0.00625
80	132176	70	0.00625
80	134062	71	0.00625
80	135948	72	0.00625
80	137834	73	0.00625
80	139720	74	0.00625
80	141606	75	0.00625
80	143492	76	0.00625
80	145378	77	0.00625
80	147264	78	0.00625
80	149150	79	0.00625
80	151036	80	0.00625
80	152922	81	0.00625
80	154808	82	0.00625
80	156694	83	0.00625
80	158580	84	0.00625
80	160466	85	0.00625
80	162352	86	0.00625
80	164238	87	0.00625
80	166124	88	0.00625
80	168010	89	0.00625
80	169896	90	0.00625
80	171782	91	0.00625
80	173668	92	0.00625
80	175554	93	0.00625
80	177440	94	0.00625
80	179326	95	0.00625
80	181212	96	0.00625
80	183098	97	0.00625
80	184984	98	0.00625
80	186870	99	0.00625
80	188756	100	0.00625
81	1809	2	0
81	3695	3	0
81	5581	4	0
81	7467	5	0
81	9353	6	0
81	11239	7	0
81	13125	8	0
81	15011	9	0
81	16899	10	0
81	18877	11	0
81	20803	12	0
81	22729	13	0
81	24655	14	0
81	26581	15	0
81	28507	16	0
81	30433	17	0
81	32359	18	0
81	34285	19	0
81	36211	20	0
81	38137	21	0
81	40063	22	0
81	41989	23	0
81	43915	24	0
81	45841	25	0
81	47767	26	0
81	49693	27	0
81	51619	28	0
81	53545	29	0
81	55471	30	0
81	57397	31	0
81	59323	32	0
81	61249	33	0
81	63175	34	0
81	65101	35	0
81	67027	36	0
81	68953	37	0
81	70879	38	0
81	72805	39	0
81	74731	40	0
81	76657	41	0
81	78583	42	0
81	80509	43	0
81	82435	44	0
81	84361	45	0
81	86352	46	0
81	88268	47	0
81	90237	48	0
81	92143	49	0
81	94049	50	0
81	95955	51	0
81	97861	52	0
81	99767	53	0
81	101673	54	0
81	103625	55	0
81	105521	56	0
81	107417	57	0
81	109313	58	0
81	111209	59	0
81	113316	60	0
81	115202	61	0
81	117088	62	0
81	118974	63	0
81	120860	64	0
81	122746	65	0
81	124632	66	0
81	126518	67	0
81	128404	68	0
81	130290	69	0
81	132176	70	0
81	134062	71	0
81	135948	72	0
81	137834	73	0
81	139720	74	0
81	141606	75	0
81	143492	76	0
81	145378	77	0
81	147264	78	0
81	149150	79	0
81	151036	80	0
81	152922	81	0
81	154808	82	0
81	156694	83	0
81	158580	84	0
81	160466	85	0
81	162352	86	0
81	164238	87	0
81	166124	88	0
81	168010	89	0
81	169896	90	0
81	171782	91	0
81	173668	92	0
81	175554	93	0
81	177440	94	0
81	179326	95	0
81	181212	96	0
81	183098	97	0
81	184984	98	0
81	186870	99	0
81	188756	100	0

