file 1108139 1720617417                                         
version 3
run BreakRanksNoGui-98-20240710-15:16:53-259852
attr configname BreakRanksNoGui
attr datetime 20240710-15:16:53
attr datetimef 20240710-151653
attr experiment BreakRanksNoGui
attr inifile omnetpp.ini
attr iterationvars "$nCars=4, $platoonSize=4, $nLanes=1, $ploegH=0.5, $controller=1, $headway=0.1, $leaderHeadway=1.2, $leaderSpeed=110, $breakRanksSafetyDistance=3, $minSpeed=100, $maxSpeed=120, $beaconInterval=0.1, $priority=4, $packetSize=200, $sController=\"CACC\", $0=2, $1=0"
attr iterationvarsd nCars=4/platoonSize=4/nLanes=1/ploegH=0.5/controller=1/headway=0.1/leaderHeadway=1.2/leaderSpeed=110/breakRanksSafetyDistance=3/minSpeed=100/maxSpeed=120/beaconInterval=0.1/priority=4/packetSize=200/sController=CACC/2/0
attr iterationvarsf nCars=4,platoonSize=4,nLanes=1,ploegH=0.5,controller=1,headway=0.1,leaderHeadway=1.2,leaderSpeed=110,breakRanksSafetyDistance=3,minSpeed=100,maxSpeed=120,beaconInterval=0.1,priority=4,packetSize=200,sController=CACC,2,0-
attr measurement "$nCars=4, $platoonSize=4, $nLanes=1, $ploegH=0.5, $controller=1, $headway=0.1, $leaderHeadway=1.2, $leaderSpeed=110, $breakRanksSafetyDistance=3, $minSpeed=100, $maxSpeed=120, $beaconInterval=0.1, $priority=4, $packetSize=200, $sController=\"CACC\", $0=2, $1=0"
attr network Highway
attr processid 259852
attr repetition 8
attr replication #8
attr resultdir results
attr runnumber 98
attr seedset 8
itervar beaconInterval 0.1
itervar breakRanksSafetyDistance 3
itervar controller 1
itervar headway 0.1
itervar leaderHeadway 1.2
itervar leaderSpeed 110
itervar maxSpeed 120
itervar minSpeed 100
itervar nCars 4
itervar nLanes 1
itervar packetSize 200
itervar platoonSize 4
itervar ploegH 0.5
itervar priority 4
itervar sController "\"CACC\""
config image-path ../../../veins/images
config repeat 10
config extends BreakRanks
config *.manager.command "\"sumo\""
config *.manager.ignoreGuiCommands true
config output-vector-file "results/BreakRanks_1_0.1_110_3_4 /result_8.vec"
config output-scalar-file "results/BreakRanks_1_0.1_110_3_4 /result_8.sca"
config extends Platooning
config *.node[*].scenario_type "\"BreakRanksScenario\""
config *.manager.command "\"sumo-gui\""
config *.node[*].scenario_type "\"SimpleScenario\""
config cmdenv-express-mode true
config cmdenv-autoflush true
config cmdenv-status-frequency 15s
config num-rngs 6
config network Highway
config debug-on-errors true
config print-undisposed true
config *.playgroundSizeX 65000m
config *.playgroundSizeY 25000m
config *.playgroundSizeZ 50m
config sim-time-limit "100 s"
config *.annotations.draw false
config *.obstacles.debug false
config *.world.useTorus false
config *.world.use2D false
config *.manager.updateInterval 0.01s
config *.manager.host "\"localhost\""
config *.manager.moduleType "\"org.car2x.plexe.PlatoonCar\""
config *.manager.moduleName "\"node\""
config *.manager.moduleDisplayString "\"\""
config *.manager.autoShutdown true
config *.manager.margin 25
config *.connectionManager.sendDirect true
config *.connectionManager.maxInterfDist 2600m
config *.connectionManager.drawMaxIntfDist false
config *.**.nic.mac1609_4.useServiceChannel false
config *.**.nic.mac1609_4.txPower 100mW
config *.**.nic.mac1609_4.bitrate 6Mbps
config *.**.nic.mac1609_4.useAcks true
config *.**.nic.mac1609_4.ackErrorRate 0.0
config *.**.nic.mac1609_4.frameErrorRate 0.0
config *.**.nic.phy80211p.minPowerLevel -94dBm
config *.**.nic.phy80211p.maxTXPower 100mW
config *.**.nic.phy80211p.useNoiseFloor true
config *.**.nic.phy80211p.noiseFloor -95dBm
config *.**.nic.phy80211p.decider "xmldoc(\"config.xml\")"
config *.**.nic.phy80211p.analogueModels "xmldoc(\"config.xml\")"
config *.**.nic.phy80211p.usePropagationDelay true
config *.node[*].mobility.x 0
config *.node[*].mobility.y 0
config *.node[*].mobility.z 1.895
config seed-set 8
config **.seed 8
config *.node[*].prot.rng-0 2
config *.node[*].appl.rng-0 3
config *.node[*].scenario.rng-0 4
config **.traffic.rng-0 5
config *.manager.configFile "\"./sumocfg/freeway.sumo.cfg\""
config *.manager.launchConfig "xmldoc(\"./sumocfg/freeway.launchd.xml\")"
config **.numberOfCars 4
config **.numberOfCarsPerPlatoon 4
config **.numberOfLanes 1
config *.node[*].helper_type "\"PositionHelper\""
config *.node[*].scenario.caccC1 0.5
config *.node[*].scenario.caccXi 1
config *.node[*].scenario.caccOmegaN "0.2 Hz"
config *.node[*].scenario.caccSpacing "2 m"
config *.node[*].scenario.engineTau "0.5 s"
config *.node[*].scenario.ploegH 0.5s
config *.node[*].scenario.ploegKp 0.2
config *.node[*].scenario.ploegKd 0.7
config *.node[*].scenario.useRealisticEngine false
config *.node[*].scenario.useControllerAcceleration true
config *.node[*].scenario.nLanes 1
config **.numericController 1
config **.headway 0.1s
config *.node[*].scenario.accHeadway 0.1s
config *.node[*].scenario.leaderHeadway 1.2s
config *.node[*].scenario.leaderSpeed 110kmph
config *.node[*].appl_type "\"SimplePlatooningApp\""
config *.node[*].appl.*.scalar-recording true
config *.node[*].appl.*.vector-recording true
config *.node[0].appl.breakRanksSafetyDistance 3m
config *.node[*].appl.minSpeed 100kmph
config *.node[*].appl.maxSpeed 120kmph
config *.node[*].protocol_type "\"SimplePlatooningBeaconing\""
config *.node[*].prot.*.scalar-recording true
config *.node[*].prot.*.vector-recording true
config *.node[*].prot.beaconingInterval 0.1s
config *.node[*].prot.priority 4
config *.node[*].prot.packetSize 200
config **.traffic_type "\"PlatoonsTrafficManager\""
config **.traffic.platoonInsertTime "1 s"
config **.traffic.platoonInsertSpeed 110kmph
config **.traffic.nCars 4
config **.traffic.platoonSize 4
config **.traffic.nLanes 1
config **.traffic.platooningVType "\"vtypeauto\""
config **.traffic.controller "\"CACC\""
config **.traffic.platoonInsertDistance 2m
config **.traffic.platoonInsertHeadway 0s
config **.traffic.platoonLeaderHeadway 1.2s
config **.scalar-recording false
config **.vector-recording false

vector 0 Highway.node[0].appl distance ETV
vector 1 Highway.node[0].appl relativeSpeed ETV
vector 2 Highway.node[0].appl nodeId ETV
vector 3 Highway.node[0].appl acceleration ETV
vector 4 Highway.node[0].appl controllerAcceleration ETV
vector 5 Highway.node[0].appl speed ETV
vector 6 Highway.node[0].appl posx ETV
vector 7 Highway.node[0].appl posy ETV
vector 8 Highway.node[1].appl distance ETV
vector 9 Highway.node[1].appl relativeSpeed ETV
vector 10 Highway.node[1].appl nodeId ETV
vector 11 Highway.node[1].appl acceleration ETV
vector 12 Highway.node[1].appl controllerAcceleration ETV
vector 13 Highway.node[1].appl speed ETV
vector 14 Highway.node[1].appl posx ETV
vector 15 Highway.node[1].appl posy ETV
vector 16 Highway.node[2].appl distance ETV
vector 17 Highway.node[2].appl relativeSpeed ETV
vector 18 Highway.node[2].appl nodeId ETV
vector 19 Highway.node[2].appl acceleration ETV
vector 20 Highway.node[2].appl controllerAcceleration ETV
vector 21 Highway.node[2].appl speed ETV
vector 22 Highway.node[2].appl posx ETV
vector 23 Highway.node[2].appl posy ETV
vector 24 Highway.node[3].appl distance ETV
vector 25 Highway.node[3].appl relativeSpeed ETV
vector 26 Highway.node[3].appl nodeId ETV
vector 27 Highway.node[3].appl acceleration ETV
vector 28 Highway.node[3].appl controllerAcceleration ETV
vector 29 Highway.node[3].appl speed ETV
vector 30 Highway.node[3].appl posx ETV
vector 31 Highway.node[3].appl posy ETV
vector 32 Highway.node[2].prot frontDelay ETV
vector 33 Highway.node[2].prot frontDelayId ETV
vector 34 Highway.node[3].prot frontDelay ETV
vector 35 Highway.node[3].prot frontDelayId ETV
vector 36 Highway.node[1].prot leaderDelay ETV
vector 37 Highway.node[1].prot leaderDelayId ETV
vector 38 Highway.node[1].prot frontDelay ETV
vector 39 Highway.node[1].prot frontDelayId ETV
vector 40 Highway.node[2].prot leaderDelay ETV
vector 41 Highway.node[2].prot leaderDelayId ETV
vector 42 Highway.node[3].prot leaderDelay ETV
vector 43 Highway.node[3].prot leaderDelayId ETV
vector 44 Highway.node[0].prot nodeId ETV
vector 45 Highway.node[0].prot busyTime ETV
vector 46 Highway.node[0].prot collisions ETV
vector 47 Highway.node[1].prot nodeId ETV
vector 48 Highway.node[1].prot busyTime ETV
vector 49 Highway.node[1].prot collisions ETV
vector 50 Highway.node[2].prot nodeId ETV
vector 51 Highway.node[2].prot busyTime ETV
vector 52 Highway.node[2].prot collisions ETV
vector 53 Highway.node[3].prot nodeId ETV
vector 54 Highway.node[3].prot busyTime ETV
vector 55 Highway.node[3].prot collisions ETV
0	8443 17274 113 149764 1.11 99.91 989 -1 33.9341 824.9774 53489.43333792
1	25717 16289 113 149764 1.11 99.91 989 0 1.4444 85.2196 123.09119024
2	42006 15994 113 149764 1.11 99.91 989 0 0 0 0
3	58000 18582 113 149764 1.11 99.91 989 -0.00283113 0.000125957 -0.043966303784312 9.6812896349407e-05
4	76582 25962 113 149764 1.11 99.91 989 -0.00437036 0.00019576 -0.042459310034081 0.00013890441444735
5	102544 21924 113 149764 1.11 99.91 989 30.5554 30.56 30219.5304 923377.16656332
6	124468 21824 113 149764 1.11 99.91 989 41.6804 3060.58 1534068.5745 3132184080.4303
7	146292 20939 113 149764 1.11 99.91 989 242.45 242.45 239783.05 58135400.472499
8	167231 20271 114 149765 1.11 99.91 989 -1 98.5061 21284.7901 1595746.581357
9	187502 20643 114 149765 1.11 99.91 989 -0.0004354 4.08655 638.97064461864 1579.7414156176
10	208145 16983 114 149765 1.11 99.91 989 1 1 989 989
11	225128 23492 114 149765 1.11 99.91 989 -0.997441 0.0444319 -15.562155909653 12.042823958496
12	248620 26595 114 149765 1.11 99.91 989 -1.5 0.0689837 -14.762409274064 16.808107574422
13	275215 20267 114 149765 1.11 99.91 989 28.931 30.56 29253.6909 865835.39251745
14	295482 22876 114 149765 1.11 99.91 989 35.6804 2958.07 1497967.104 2970082050.3647
15	318358 21928 114 149765 1.11 99.91 989 242.45 252.35 241716.85 59085013.7525
16	340286 21254 115 149766 1.11 99.91 989 -1 36.635 9247.0984 261610.04193786
17	361540 22145 115 149766 1.11 99.91 989 -8.70308e-05 2.46175 323.24087956388 449.37124497309
18	383685 16983 115 149766 1.11 99.91 989 2 2 1978 3956
19	400668 25724 115 149766 1.11 99.91 989 -1.54967 1.24762 24.423440980631 53.049294253575
20	426392 25737 115 149766 1.11 99.91 989 -2.36506 1.5 24.906983732525 71.176698468573
21	452129 21822 115 149766 1.11 99.91 989 28.0939 33.0865 30674.3008 953341.05157456
22	473951 22830 115 149766 1.11 99.91 989 29.6804 3093.93 1517671.9006 3088542989.4215
23	496781 21928 115 149766 1.11 99.91 989 242.45 249.05 241924.75 59187577.752501
24	518709 19867 116 149767 1.11 99.91 989 -1 6.3452 391.90656 3188.629838438
25	538576 20344 116 149767 1.11 99.91 989 -3.43232e-05 2.60817 44.76153491236 64.750185069164
26	558920 16983 116 149767 1.11 99.91 989 3 3 2967 8901
27	575903 23780 116 149767 1.11 99.91 989 -2.33166 1.49923 14.455555739716 179.77106413032
28	599683 26359 116 149767 1.11 99.91 989 -2.96215 1.5 15.538982943457 213.42909419253
29	626042 20608 116 149767 1.11 99.91 989 25.4595 32.1038 30779.5951 959515.74667929
30	646650 22871 116 149767 1.11 99.91 989 23.6804 3098.51 1523745.3173 3126052413.576
31	669521 21928 116 149767 1.11 99.91 989 242.45 249.05 242205.25 59322274.5125
32	691449 39498 329 149830 1.224113220154 99.92410596603 988 0.09999322811 0.100012125558 98.800003905988 9.8800007994236
33	730947 26750 329 149830 1.224113220154 99.92410596603 988 2 2 1976 3952
34	757697 39468 364 149859 1.233896240168 99.933901984777 988 0.099988160102 0.100012141253 98.800003904721 9.8800007997411
35	797165 26737 364 149859 1.233896240168 99.933901984777 988 3 3 2964 8892
36	823902 39507 395 149908 1.260280280196 99.960286420259 988 0.099991469637 0.100012139235 98.800004300175 9.8800008785691
37	863409 26770 395 149908 1.260280280196 99.960286420259 988 1 1 988 988
38	890179 39507 395 149908 1.260280280196 99.960286420259 988 0.099991469637 0.100012139235 98.800004300175 9.8800008785691
39	929686 26770 395 149908 1.260280280196 99.960286420259 988 1 1 988 988
40	956456 39470 401 149896 1.26028030021 99.960286190284 988 0.099991467166 0.100012139527 98.800004050186 9.8800008285714
41	995926 26728 401 149896 1.26028030021 99.960286190284 988 2 2 1976 3952
42	1022654 39460 407 149902 1.260280320223 99.960286204852 988 0.09999146717 0.100012139198 98.80000404474 9.8800008274821
43	1062114 26722 407 149902 1.260280320223 99.960286204852 988 3 3 2964 8892
44	1088836 1407 1462 149913 2 100 99 0 0 0 0
45	1090243 2012 1462 149913 2 100 99 0.011241 0.013069278206 1.236177278206 0.015437637946826
46	1092255 1407 1462 149913 2 100 99 0 0 0 0
47	1093662 1407 1463 149914 2 100 99 1 1 99 99
48	1095069 2011 1463 149914 2 100 99 0.011241 0.01297 1.236046046036 0.015434246617332
49	1097080 1407 1463 149914 2 100 99 0 0 0 0
50	1098487 1407 1464 149915 2 100 99 2 2 198 396
51	1099894 2011 1464 149915 2 100 99 0.011241 0.01297 1.236046092388 0.015434247788653
52	1101905 1407 1464 149915 2 100 99 0 0 0 0
53	1103312 1407 1465 149916 2 100 99 3 3 297 891
54	1104719 2012 1465 149916 2 100 99 0.011241 0.013003138866 1.236046138866 0.015434273353368
55	1106731 1407 1465 149916 2 100 99 0 0 0 0

