version 3
run BreakRanksNoGui-296-20240711-15:38:44-295458
attr configname BreakRanksNoGui
attr datetime 20240711-15:38:44
attr datetimef 20240711-153844
attr experiment BreakRanksNoGui
attr inifile omnetpp.ini
attr iterationvars "$nCars=9, $platoonSize=8, $nLanes=1, $ploegH=0.5, $controller=1, $headway=0.1, $leaderHeadway=1.2, $leaderSpeed=130, $breakRanksSafetyDistance=20, $minSpeed=120, $maxSpeed=140, $beaconInterval=0.1, $priority=4, $packetSize=200, $sController=\"CACC\", $0=2, $1=0"
attr iterationvarsd nCars=9/platoonSize=8/nLanes=1/ploegH=0.5/controller=1/headway=0.1/leaderHeadway=1.2/leaderSpeed=130/breakRanksSafetyDistance=20/minSpeed=120/maxSpeed=140/beaconInterval=0.1/priority=4/packetSize=200/sController=CACC/2/0
attr iterationvarsf nCars=9,platoonSize=8,nLanes=1,ploegH=0.5,controller=1,headway=0.1,leaderHeadway=1.2,leaderSpeed=130,breakRanksSafetyDistance=20,minSpeed=120,maxSpeed=140,beaconInterval=0.1,priority=4,packetSize=200,sController=CACC,2,0-
attr measurement "$nCars=9, $platoonSize=8, $nLanes=1, $ploegH=0.5, $controller=1, $headway=0.1, $leaderHeadway=1.2, $leaderSpeed=130, $breakRanksSafetyDistance=20, $minSpeed=120, $maxSpeed=140, $beaconInterval=0.1, $priority=4, $packetSize=200, $sController=\"CACC\", $0=2, $1=0"
attr network Highway
attr processid 295458
attr repetition 6
attr replication #6
attr resultdir results
attr runnumber 296
attr seedset 6
itervar beaconInterval 0.1
itervar breakRanksSafetyDistance 20
itervar controller 1
itervar headway 0.1
itervar leaderHeadway 1.2
itervar leaderSpeed 130
itervar maxSpeed 140
itervar minSpeed 120
itervar nCars 9
itervar nLanes 1
itervar packetSize 200
itervar platoonSize 8
itervar ploegH 0.5
itervar priority 4
itervar sController "\"CACC\""
config image-path ../../../veins/images
config repeat 10
config extends BreakRanks
config *.manager.command "\"sumo\""
config *.manager.ignoreGuiCommands true
config output-vector-file "results/BreakRanks_1_0.1_130_20_8 /result_6.vec"
config output-scalar-file "results/BreakRanks_1_0.1_130_20_8 /result_6.sca"
config extends Platooning
config *.node[*].scenario_type "\"BreakRanksScenario\""
config *.manager.command "\"sumo-gui\""
config *.node[*].scenario_type "\"SimpleScenario\""
config cmdenv-express-mode true
config cmdenv-autoflush true
config cmdenv-status-frequency 15s
config num-rngs 6
config network Highway
config debug-on-errors true
config print-undisposed true
config *.playgroundSizeX 65000m
config *.playgroundSizeY 25000m
config *.playgroundSizeZ 50m
config sim-time-limit "100 s"
config *.annotations.draw false
config *.obstacles.debug false
config *.world.useTorus false
config *.world.use2D false
config *.manager.updateInterval 0.01s
config *.manager.host "\"localhost\""
config *.manager.moduleType "\"org.car2x.plexe.PlatoonCar\""
config *.manager.moduleName "\"node\""
config *.manager.moduleDisplayString "\"\""
config *.manager.autoShutdown true
config *.manager.margin 25
config *.connectionManager.sendDirect true
config *.connectionManager.maxInterfDist 2600m
config *.connectionManager.drawMaxIntfDist false
config *.**.nic.mac1609_4.useServiceChannel false
config *.**.nic.mac1609_4.txPower 100mW
config *.**.nic.mac1609_4.bitrate 6Mbps
config *.**.nic.mac1609_4.useAcks true
config *.**.nic.mac1609_4.ackErrorRate 0.0
config *.**.nic.mac1609_4.frameErrorRate 0.0
config *.**.nic.phy80211p.minPowerLevel -94dBm
config *.**.nic.phy80211p.maxTXPower 100mW
config *.**.nic.phy80211p.useNoiseFloor true
config *.**.nic.phy80211p.noiseFloor -95dBm
config *.**.nic.phy80211p.decider "xmldoc(\"config.xml\")"
config *.**.nic.phy80211p.analogueModels "xmldoc(\"config.xml\")"
config *.**.nic.phy80211p.usePropagationDelay true
config *.node[*].mobility.x 0
config *.node[*].mobility.y 0
config *.node[*].mobility.z 1.895
config seed-set 6
config **.seed 6
config *.node[*].prot.rng-0 2
config *.node[*].appl.rng-0 3
config *.node[*].scenario.rng-0 4
config **.traffic.rng-0 5
config *.manager.configFile "\"./sumocfg/freeway.sumo.cfg\""
config *.manager.launchConfig "xmldoc(\"./sumocfg/freeway.launchd.xml\")"
config **.numberOfCars 9
config **.numberOfCarsPerPlatoon 8
config **.numberOfLanes 1
config *.node[*].helper_type "\"PositionHelper\""
config *.node[*].scenario.caccC1 0.5
config *.node[*].scenario.caccXi 1
config *.node[*].scenario.caccOmegaN "0.2 Hz"
config *.node[*].scenario.caccSpacing "2 m"
config *.node[*].scenario.engineTau "0.5 s"
config *.node[*].scenario.ploegH 0.5s
config *.node[*].scenario.ploegKp 0.2
config *.node[*].scenario.ploegKd 0.7
config *.node[*].scenario.useRealisticEngine false
config *.node[*].scenario.useControllerAcceleration true
config *.node[*].scenario.nLanes 1
config **.numericController 1
config **.headway 0.1s
config *.node[*].scenario.accHeadway 0.1s
config *.node[*].scenario.leaderHeadway 1.2s
config *.node[*].scenario.leaderSpeed 130kmph
config *.node[*].appl_type "\"SimplePlatooningApp\""
config *.node[*].appl.*.scalar-recording true
config *.node[*].appl.*.vector-recording true
config *.node[0].appl.breakRanksSafetyDistance 20m
config *.node[*].appl.minSpeed 120kmph
config *.node[*].appl.maxSpeed 140kmph
config *.node[*].protocol_type "\"SimplePlatooningBeaconing\""
config *.node[*].prot.*.scalar-recording true
config *.node[*].prot.*.vector-recording true
config *.node[*].prot.beaconingInterval 0.1s
config *.node[*].prot.priority 4
config *.node[*].prot.packetSize 200
config **.traffic_type "\"PlatoonsTrafficManager\""
config **.traffic.platoonInsertTime "1 s"
config **.traffic.platoonInsertSpeed 130kmph
config **.traffic.nCars 9
config **.traffic.platoonSize 8
config **.traffic.nLanes 1
config **.traffic.platooningVType "\"vtypeauto\""
config **.traffic.controller "\"CACC\""
config **.traffic.platoonInsertDistance 2m
config **.traffic.platoonInsertHeadway 0s
config **.traffic.platoonLeaderHeadway 1.2s
config **.scalar-recording false
config **.vector-recording false

vector 0 Highway.node[0].appl distance ETV
vector 1 Highway.node[0].appl relativeSpeed ETV
vector 2 Highway.node[0].appl nodeId ETV
vector 3 Highway.node[0].appl acceleration ETV
vector 4 Highway.node[0].appl controllerAcceleration ETV
vector 5 Highway.node[0].appl speed ETV
vector 6 Highway.node[0].appl posx ETV
vector 7 Highway.node[0].appl posy ETV
vector 8 Highway.node[1].appl distance ETV
vector 9 Highway.node[1].appl relativeSpeed ETV
vector 10 Highway.node[1].appl nodeId ETV
vector 11 Highway.node[1].appl acceleration ETV
vector 12 Highway.node[1].appl controllerAcceleration ETV
vector 13 Highway.node[1].appl speed ETV
vector 14 Highway.node[1].appl posx ETV
vector 15 Highway.node[1].appl posy ETV
vector 16 Highway.node[2].appl distance ETV
vector 17 Highway.node[2].appl relativeSpeed ETV
vector 18 Highway.node[2].appl nodeId ETV
vector 19 Highway.node[2].appl acceleration ETV
vector 20 Highway.node[2].appl controllerAcceleration ETV
vector 21 Highway.node[2].appl speed ETV
vector 22 Highway.node[2].appl posx ETV
vector 23 Highway.node[2].appl posy ETV
vector 24 Highway.node[3].appl distance ETV
vector 25 Highway.node[3].appl relativeSpeed ETV
vector 26 Highway.node[3].appl nodeId ETV
vector 27 Highway.node[3].appl acceleration ETV
vector 28 Highway.node[3].appl controllerAcceleration ETV
vector 29 Highway.node[3].appl speed ETV
vector 30 Highway.node[3].appl posx ETV
vector 31 Highway.node[3].appl posy ETV
vector 32 Highway.node[4].appl distance ETV
vector 33 Highway.node[4].appl relativeSpeed ETV
vector 34 Highway.node[4].appl nodeId ETV
vector 35 Highway.node[4].appl acceleration ETV
vector 36 Highway.node[4].appl controllerAcceleration ETV
vector 37 Highway.node[4].appl speed ETV
vector 38 Highway.node[4].appl posx ETV
vector 39 Highway.node[4].appl posy ETV
vector 40 Highway.node[5].appl distance ETV
vector 41 Highway.node[5].appl relativeSpeed ETV
vector 42 Highway.node[5].appl nodeId ETV
vector 43 Highway.node[5].appl acceleration ETV
vector 44 Highway.node[5].appl controllerAcceleration ETV
vector 45 Highway.node[5].appl speed ETV
vector 46 Highway.node[5].appl posx ETV
vector 47 Highway.node[5].appl posy ETV
vector 48 Highway.node[6].appl distance ETV
vector 49 Highway.node[6].appl relativeSpeed ETV
vector 50 Highway.node[6].appl nodeId ETV
vector 51 Highway.node[6].appl acceleration ETV
vector 52 Highway.node[6].appl controllerAcceleration ETV
vector 53 Highway.node[6].appl speed ETV
vector 54 Highway.node[6].appl posx ETV
vector 55 Highway.node[6].appl posy ETV
vector 56 Highway.node[7].appl distance ETV
vector 57 Highway.node[7].appl relativeSpeed ETV
vector 58 Highway.node[7].appl nodeId ETV
vector 59 Highway.node[7].appl acceleration ETV
vector 60 Highway.node[7].appl controllerAcceleration ETV
vector 61 Highway.node[7].appl speed ETV
vector 62 Highway.node[7].appl posx ETV
vector 63 Highway.node[7].appl posy ETV
vector 64 Highway.node[8].appl distance ETV
vector 65 Highway.node[8].appl relativeSpeed ETV
vector 66 Highway.node[8].appl nodeId ETV
vector 67 Highway.node[8].appl acceleration ETV
vector 68 Highway.node[8].appl controllerAcceleration ETV
vector 69 Highway.node[8].appl speed ETV
vector 70 Highway.node[8].appl posx ETV
vector 71 Highway.node[8].appl posy ETV
vector 72 Highway.node[1].prot leaderDelay ETV
vector 73 Highway.node[1].prot leaderDelayId ETV
vector 74 Highway.node[1].prot frontDelay ETV
vector 75 Highway.node[1].prot frontDelayId ETV
vector 76 Highway.node[2].prot leaderDelay ETV
vector 77 Highway.node[2].prot leaderDelayId ETV
vector 78 Highway.node[3].prot leaderDelay ETV
vector 79 Highway.node[3].prot leaderDelayId ETV
vector 80 Highway.node[4].prot leaderDelay ETV
vector 81 Highway.node[4].prot leaderDelayId ETV
vector 82 Highway.node[5].prot leaderDelay ETV
vector 83 Highway.node[5].prot leaderDelayId ETV
vector 84 Highway.node[6].prot leaderDelay ETV
vector 85 Highway.node[6].prot leaderDelayId ETV
vector 86 Highway.node[7].prot leaderDelay ETV
vector 87 Highway.node[7].prot leaderDelayId ETV
vector 88 Highway.node[7].prot frontDelay ETV
vector 89 Highway.node[7].prot frontDelayId ETV
vector 90 Highway.node[3].prot frontDelay ETV
vector 91 Highway.node[3].prot frontDelayId ETV
vector 92 Highway.node[6].prot frontDelay ETV
vector 93 Highway.node[6].prot frontDelayId ETV
vector 94 Highway.node[2].prot frontDelay ETV
vector 95 Highway.node[2].prot frontDelayId ETV
vector 96 Highway.node[4].prot frontDelay ETV
vector 97 Highway.node[4].prot frontDelayId ETV
vector 98 Highway.node[5].prot frontDelay ETV
vector 99 Highway.node[5].prot frontDelayId ETV
vector 100 Highway.node[0].prot nodeId ETV
vector 101 Highway.node[0].prot busyTime ETV
vector 102 Highway.node[0].prot collisions ETV
vector 103 Highway.node[1].prot nodeId ETV
vector 104 Highway.node[1].prot busyTime ETV
vector 105 Highway.node[1].prot collisions ETV
vector 106 Highway.node[2].prot nodeId ETV
vector 107 Highway.node[2].prot busyTime ETV
vector 108 Highway.node[2].prot collisions ETV
vector 109 Highway.node[3].prot nodeId ETV
vector 110 Highway.node[3].prot busyTime ETV
vector 111 Highway.node[3].prot collisions ETV
vector 112 Highway.node[4].prot nodeId ETV
vector 113 Highway.node[4].prot busyTime ETV
vector 114 Highway.node[4].prot collisions ETV
vector 115 Highway.node[5].prot nodeId ETV
vector 116 Highway.node[5].prot busyTime ETV
vector 117 Highway.node[5].prot collisions ETV
vector 118 Highway.node[6].prot nodeId ETV
vector 119 Highway.node[6].prot busyTime ETV
vector 120 Highway.node[6].prot collisions ETV
vector 121 Highway.node[7].prot nodeId ETV
vector 122 Highway.node[7].prot busyTime ETV
vector 123 Highway.node[7].prot collisions ETV
vector 124 Highway.node[8].prot nodeId ETV
vector 125 Highway.node[8].prot busyTime ETV
vector 126 Highway.node[8].prot collisions ETV
0	113	1.11	9305.17
0	670	1.21	9305.17
0	1227	1.31	9305.17
0	1784	1.41	9305.17
0	2341	1.51	9305.17
0	2898	1.61	9305.17
0	3455	1.71	9305.17
0	4012	1.81	9305.17
0	4569	1.91	9305.17
0	5135	2.01	9305.17
0	5692	2.11	-1
0	6249	2.21	-1
0	6806	2.31	-1
0	7363	2.41	-1
0	7920	2.51	-1
0	8477	2.61	-1
0	9034	2.71	-1
0	9591	2.81	-1
0	10148	2.91	-1
0	10714	3.01	-1
0	11271	3.11	-1
0	11828	3.21	-1
0	12385	3.31	-1
0	12942	3.41	-1
0	13499	3.51	-1
0	14056	3.61	-1
0	14613	3.71	-1
0	15170	3.81	-1
0	15727	3.91	-1
0	16293	4.01	-1
0	16850	4.11	-1
0	17407	4.21	-1
0	17964	4.31	-1
0	18521	4.41	-1
0	19078	4.51	-1
0	19635	4.61	-1
0	20192	4.71	-1
0	20749	4.81	-1
0	21306	4.91	-1
0	21872	5.01	-1
0	22429	5.11	-1
0	22986	5.21	-1
0	23543	5.31	-1
0	24100	5.41	-1
0	24657	5.51	-1
0	25214	5.61	-1
0	25771	5.71	-1
0	26328	5.81	-1
0	26885	5.91	-1
0	27451	6.01	-1
0	28008	6.11	-1
0	28565	6.21	-1
0	29122	6.31	-1
0	29679	6.41	-1
0	30236	6.51	-1
0	30793	6.61	-1
0	31350	6.71	-1
0	31907	6.81	-1
0	32464	6.91	-1
0	33030	7.01	-1
0	33587	7.11	-1
0	34144	7.21	-1
0	34701	7.31	-1
0	35258	7.41	-1
0	35815	7.51	-1
0	36372	7.61	-1
0	36929	7.71	-1
0	37486	7.81	-1
0	38043	7.91	-1
0	38609	8.01	-1
0	39166	8.11	-1
0	39723	8.21	-1
0	40280	8.31	-1
0	40837	8.41	-1
0	41394	8.51	-1
0	41951	8.61	-1
0	42508	8.71	-1
0	43065	8.81	-1
0	43622	8.91	-1
0	44188	9.01	-1
0	44745	9.11	-1
0	45302	9.21	-1
0	45859	9.31	-1
0	46416	9.41	-1
0	46973	9.51	-1
0	47530	9.61	-1
0	48087	9.71	-1
0	48644	9.81	-1
0	49201	9.91	-1
0	49852	10.01	-1
0	50416	10.11	-1
0	50980	10.21	-1
0	51544	10.31	-1
0	52108	10.41	-1
0	52672	10.51	-1
0	53236	10.61	-1
0	53800	10.71	-1
0	54364	10.81	-1
0	54928	10.91	-1
0	55501	11.01	-1
0	56065	11.11	-1
0	56629	11.21	-1
0	57193	11.31	-1
0	57757	11.41	-1
0	58321	11.51	-1
0	58885	11.61	-1
0	59449	11.71	-1
0	60013	11.81	-1
0	60577	11.91	-1
0	61150	12.01	-1
0	61714	12.11	-1
0	62278	12.21	-1
0	62842	12.31	-1
0	63406	12.41	-1
0	63970	12.51	-1
0	64534	12.61	-1
0	65098	12.71	-1
0	65662	12.81	-1
0	66226	12.91	-1
0	66799	13.01	-1
0	67363	13.11	-1
0	67927	13.21	-1
0	68491	13.31	-1
0	69055	13.41	-1
0	69619	13.51	-1
0	70183	13.61	-1
0	70747	13.71	-1
0	71311	13.81	-1
0	71875	13.91	-1
0	72448	14.01	-1
0	73012	14.11	-1
0	73576	14.21	-1
0	74140	14.31	-1
0	74704	14.41	-1
0	75268	14.51	-1
0	75832	14.61	-1
0	76396	14.71	-1
0	76960	14.81	-1
0	77524	14.91	-1
0	78097	15.01	-1
0	78661	15.11	-1
0	79225	15.21	-1
0	79789	15.31	-1
0	80353	15.41	-1
0	80917	15.51	-1
0	81481	15.61	-1
0	82045	15.71	-1
0	82609	15.81	-1
0	83173	15.91	-1
0	83746	16.01	-1
0	84310	16.11	-1
0	84874	16.21	-1
0	85438	16.31	-1
0	86002	16.41	-1
0	86566	16.51	-1
0	87130	16.61	-1
0	87694	16.71	-1
0	88258	16.81	-1
0	88822	16.91	-1
0	89395	17.01	-1
0	89959	17.11	-1
0	90523	17.21	-1
0	91087	17.31	-1
0	91651	17.41	-1
0	92215	17.51	-1
0	92779	17.61	-1
0	93343	17.71	-1
0	93907	17.81	-1
0	94471	17.91	-1
0	95044	18.01	-1
0	95608	18.11	-1
0	96172	18.21	-1
0	96736	18.31	-1
0	97300	18.41	-1
0	97864	18.51	-1
0	98428	18.61	-1
0	98992	18.71	-1
0	99556	18.81	-1
0	100120	18.91	-1
0	100693	19.01	-1
0	101257	19.11	-1
0	101821	19.21	-1
0	102385	19.31	-1
0	102949	19.41	-1
0	103513	19.51	-1
0	104077	19.61	-1
0	104641	19.71	-1
0	105205	19.81	-1
0	105769	19.91	-1
0	106342	20.01	-1
0	106906	20.11	-1
0	107470	20.21	-1
0	108034	20.31	-1
0	108598	20.41	-1
0	109162	20.51	-1
0	109726	20.61	-1
0	110290	20.71	-1
0	110854	20.81	-1
0	111418	20.91	-1
0	111991	21.01	-1
0	112555	21.11	-1
0	113119	21.21	-1
0	113683	21.31	-1
0	114247	21.41	-1
0	114811	21.51	-1
0	115375	21.61	-1
0	115939	21.71	-1
0	116503	21.81	-1
0	117067	21.91	-1
0	117640	22.01	-1
0	118204	22.11	-1
0	118768	22.21	-1
0	119332	22.31	-1
0	119896	22.41	-1
0	120460	22.51	-1
0	121024	22.61	-1
0	121588	22.71	-1
0	122152	22.81	-1
0	122716	22.91	-1
0	123289	23.01	-1
0	123853	23.11	-1
0	124417	23.21	-1
0	124981	23.31	-1
0	125545	23.41	-1
0	126109	23.51	-1
0	126673	23.61	-1
0	127237	23.71	-1
0	127801	23.81	-1
0	128365	23.91	-1
0	128938	24.01	-1
0	129502	24.11	-1
0	130066	24.21	-1
0	130630	24.31	-1
0	131194	24.41	-1
0	131758	24.51	-1
0	132322	24.61	-1
0	132886	24.71	-1
0	133450	24.81	-1
0	134014	24.91	-1
0	134587	25.01	-1
0	135151	25.11	-1
0	135715	25.21	-1
0	136279	25.31	-1
0	136843	25.41	-1
0	137407	25.51	-1
0	137971	25.61	-1
0	138535	25.71	-1
0	139099	25.81	-1
0	139663	25.91	-1
0	140236	26.01	-1
0	140800	26.11	-1
0	141364	26.21	-1
0	141928	26.31	-1
0	142492	26.41	-1
0	143056	26.51	-1
0	143620	26.61	-1
0	144184	26.71	-1
0	144748	26.81	-1
0	145312	26.91	-1
0	145885	27.01	-1
0	146449	27.11	-1
0	147013	27.21	-1
0	147577	27.31	-1
0	148141	27.41	-1
0	148705	27.51	-1
0	149269	27.61	-1
0	149833	27.71	-1
0	150397	27.81	-1
0	150961	27.91	-1
0	151534	28.01	-1
0	152098	28.11	-1
0	152662	28.21	-1
0	153226	28.31	-1
0	153790	28.41	-1
0	154354	28.51	-1
0	154918	28.61	-1
0	155482	28.71	-1
0	156046	28.81	-1
0	156610	28.91	-1
0	157183	29.01	-1
0	157747	29.11	-1
0	158311	29.21	-1
0	158875	29.31	-1
0	159439	29.41	-1
0	160003	29.51	-1
0	160567	29.61	-1
0	161131	29.71	-1
0	161695	29.81	-1
0	162259	29.91	-1
0	162832	30.01	-1
0	163396	30.11	-1
0	163960	30.21	-1
0	164524	30.31	-1
0	165088	30.41	-1
0	165652	30.51	-1
0	166216	30.61	-1
0	166780	30.71	-1
0	167344	30.81	-1
0	167908	30.91	-1
0	168481	31.01	-1
0	169045	31.11	-1
0	169609	31.21	-1
0	170173	31.31	-1
0	170737	31.41	-1
0	171301	31.51	-1
0	171865	31.61	-1
0	172429	31.71	-1
0	172993	31.81	-1
0	173557	31.91	-1
0	174130	32.01	-1
0	174694	32.11	-1
0	175258	32.21	-1
0	175822	32.31	-1
0	176386	32.41	-1
0	176950	32.51	-1
0	177514	32.61	-1
0	178078	32.71	-1
0	178642	32.81	-1
0	179206	32.91	-1
0	179779	33.01	-1
0	180343	33.11	-1
0	180907	33.21	-1
0	181471	33.31	-1
0	182035	33.41	-1
0	182599	33.51	-1
0	183163	33.61	-1
0	183727	33.71	-1
0	184291	33.81	-1
0	184855	33.91	-1
0	185428	34.01	-1
0	185992	34.11	-1
0	186556	34.21	-1
0	187120	34.31	-1
0	187684	34.41	-1
0	188248	34.51	-1
0	188812	34.61	-1
0	189376	34.71	-1
0	189940	34.81	-1
0	190504	34.91	-1
0	191077	35.01	-1
0	191641	35.11	-1
0	192205	35.21	-1
0	192769	35.31	-1
0	193333	35.41	-1
0	193897	35.51	-1
0	194461	35.61	-1
0	195025	35.71	-1
0	195589	35.81	-1
0	196153	35.91	-1
0	196726	36.01	-1
0	197290	36.11	-1
0	197854	36.21	-1
0	198418	36.31	-1
0	198982	36.41	-1
0	199546	36.51	-1
0	200110	36.61	-1
0	200674	36.71	-1
0	201238	36.81	-1
0	201802	36.91	-1
0	202375	37.01	-1
0	202939	37.11	-1
0	203503	37.21	-1
0	204067	37.31	-1
0	204631	37.41	-1
0	205195	37.51	-1
0	205759	37.61	-1
0	206323	37.71	-1
0	206887	37.81	-1
0	207451	37.91	-1
0	208024	38.01	-1
0	208588	38.11	-1
0	209152	38.21	-1
0	209716	38.31	-1
0	210280	38.41	-1
0	210844	38.51	-1
0	211408	38.61	-1
0	211972	38.71	-1
0	212536	38.81	-1
0	213100	38.91	-1
0	213673	39.01	-1
0	214237	39.11	-1
0	214801	39.21	-1
0	215365	39.31	-1
0	215929	39.41	-1
0	216493	39.51	-1
0	217057	39.61	-1
0	217621	39.71	-1
0	218185	39.81	-1
0	218749	39.91	-1
0	219322	40.01	-1
0	219886	40.11	-1
0	220450	40.21	-1
0	221014	40.31	-1
0	221578	40.41	-1
0	222142	40.51	-1
0	222706	40.61	-1
0	223270	40.71	-1
0	223834	40.81	-1
0	224398	40.91	-1
0	224971	41.01	-1
0	225535	41.11	-1
0	226099	41.21	-1
0	226663	41.31	-1
0	227227	41.41	-1
0	227791	41.51	-1
0	228355	41.61	-1
0	228919	41.71	-1
0	229483	41.81	-1
0	230047	41.91	-1
0	230620	42.01	-1
0	231184	42.11	-1
0	231748	42.21	-1
0	232312	42.31	-1
0	232876	42.41	-1
0	233440	42.51	-1
0	234004	42.61	-1
0	234568	42.71	-1
0	235132	42.81	-1
0	235696	42.91	-1
0	236269	43.01	-1
0	236833	43.11	-1
0	237397	43.21	-1
0	237961	43.31	-1
0	238525	43.41	-1
0	239089	43.51	-1
0	239653	43.61	-1
0	240217	43.71	-1
0	240781	43.81	-1
0	241345	43.91	-1
0	241918	44.01	-1
0	242482	44.11	-1
0	243046	44.21	-1
0	243610	44.31	-1
0	244174	44.41	-1
0	244738	44.51	-1
0	245302	44.61	-1
0	245866	44.71	-1
0	246430	44.81	-1
0	246994	44.91	-1
0	247567	45.01	-1
0	248131	45.11	-1
0	248695	45.21	-1
0	249259	45.31	-1
0	249823	45.41	-1
0	250387	45.51	-1
0	250951	45.61	-1
0	251515	45.71	-1
0	252079	45.81	-1
0	252643	45.91	-1
0	253216	46.01	-1
0	253780	46.11	-1
0	254344	46.21	-1
0	254908	46.31	-1
0	255472	46.41	-1
0	256036	46.51	-1
0	256600	46.61	-1
0	257164	46.71	-1
0	257728	46.81	-1
0	258292	46.91	-1
0	258865	47.01	-1
0	259429	47.11	-1
0	259993	47.21	-1
0	260557	47.31	-1
0	261121	47.41	-1
0	261685	47.51	-1
0	262249	47.61	-1
0	262813	47.71	-1
0	263377	47.81	-1
0	264034	47.91	-1
0	264606	48.01	-1
0	265169	48.11	-1
0	265732	48.21	-1
0	266295	48.31	-1
0	266858	48.41	-1
0	267421	48.51	-1
0	267984	48.61	-1
0	268547	48.71	-1
0	269110	48.81	-1
0	269673	48.91	-1
0	270245	49.01	-1
0	270808	49.11	-1
0	271371	49.21	-1
0	271934	49.31	-1
0	272497	49.41	-1
0	273060	49.51	-1
0	273623	49.61	-1
0	274186	49.71	-1
0	274749	49.81	-1
0	275312	49.91	-1
0	275884	50.01	-1
0	276447	50.11	-1
0	277010	50.21	-1
0	277573	50.31	-1
0	278136	50.41	-1
0	278699	50.51	-1
0	279262	50.61	-1
0	279825	50.71	-1
0	280388	50.81	-1
0	280951	50.91	-1
0	281523	51.01	-1
0	282086	51.11	-1
0	282649	51.21	-1
0	283212	51.31	-1
0	283775	51.41	-1
0	284338	51.51	-1
0	284901	51.61	-1
0	285464	51.71	-1
0	286027	51.81	-1
0	286590	51.91	-1
0	287162	52.01	-1
0	287725	52.11	-1
0	288288	52.21	-1
0	288851	52.31	-1
0	289414	52.41	-1
0	289977	52.51	-1
0	290540	52.61	-1
0	291103	52.71	-1
0	291666	52.81	-1
0	292229	52.91	-1
0	292801	53.01	-1
0	293364	53.11	-1
0	293927	53.21	-1
0	294490	53.31	-1
0	295053	53.41	-1
0	295616	53.51	-1
0	296179	53.61	-1
0	296742	53.71	-1
0	297305	53.81	-1
0	297868	53.91	-1
0	298440	54.01	-1
0	299003	54.11	-1
0	299659	54.21	-1
0	300221	54.31	-1
0	300783	54.41	-1
0	301345	54.51	-1
0	301907	54.61	-1
0	302469	54.71	-1
0	303031	54.81	-1
0	303593	54.91	-1
0	304164	55.01	-1
0	304726	55.11	-1
0	305288	55.21	-1
0	305850	55.31	-1
0	306412	55.41	-1
0	306974	55.51	-1
0	307536	55.61	-1
0	308098	55.71	-1
0	308660	55.81	-1
0	309222	55.91	-1
0	309793	56.01	-1
0	310355	56.11	-1
0	310917	56.21	-1
0	311479	56.31	-1
0	312041	56.41	-1
0	312603	56.51	-1
0	313165	56.61	-1
0	313727	56.71	-1
0	314289	56.81	-1
0	314851	56.91	-1
0	315422	57.01	-1
0	315984	57.11	-1
0	316546	57.21	-1
0	317108	57.31	-1
0	317670	57.41	-1
0	318232	57.51	-1
0	318794	57.61	-1
0	319356	57.71	-1
0	319918	57.81	-1
0	320480	57.91	-1
0	321051	58.01	-1
0	321613	58.11	-1
0	322175	58.21	-1
0	322737	58.31	-1
0	323299	58.41	-1
0	323861	58.51	-1
0	324423	58.61	-1
0	324985	58.71	-1
0	325547	58.81	-1
0	326109	58.91	-1
0	326680	59.01	-1
0	327242	59.11	-1
0	327804	59.21	-1
0	328366	59.31	-1
0	328928	59.41	-1
0	329490	59.51	-1
0	330052	59.61	-1
0	330614	59.71	-1
0	331176	59.81	-1
0	331831	59.91	-1
0	332401	60.01	-1
0	332962	60.11	-1
0	333523	60.21	-1
0	334084	60.31	-1
0	334645	60.41	-1
0	335206	60.51	-1
0	335767	60.61	-1
0	336328	60.71	-1
0	336889	60.81	-1
0	337450	60.91	-1
0	338020	61.01	-1
0	338581	61.11	-1
0	339142	61.21	-1
0	339703	61.31	-1
0	340264	61.41	-1
0	340825	61.51	-1
0	341386	61.61	-1
0	341947	61.71	-1
0	342508	61.81	-1
0	343069	61.91	-1
0	343639	62.01	-1
0	344200	62.11	-1
0	344761	62.21	-1
0	345322	62.31	-1
0	345883	62.41	-1
0	346444	62.51	-1
0	347005	62.61	-1
0	347566	62.71	-1
0	348127	62.81	-1
0	348688	62.91	-1
0	349258	63.01	-1
0	349819	63.11	-1
0	350380	63.21	-1
0	350941	63.31	-1
0	351502	63.41	-1
0	352063	63.51	-1
0	352624	63.61	-1
0	353185	63.71	-1
0	353746	63.81	-1
0	354307	63.91	-1
0	354877	64.01	-1
0	355438	64.11	-1
0	355999	64.21	-1
0	356560	64.31	-1
0	357121	64.41	-1
0	357682	64.51	-1
0	358243	64.61	-1
0	358804	64.71	-1
0	359365	64.81	-1
0	359926	64.91	-1
0	360496	65.01	-1
0	361150	65.11	-1
0	361710	65.21	-1
0	362270	65.31	-1
0	362830	65.41	-1
0	363390	65.51	-1
0	363950	65.61	-1
0	364510	65.71	-1
0	365070	65.81	-1
0	365630	65.91	-1
0	366199	66.01	-1
0	366759	66.11	-1
0	367319	66.21	-1
0	367879	66.31	-1
0	368439	66.41	-1
0	368999	66.51	-1
0	369559	66.61	-1
0	370119	66.71	-1
0	370679	66.81	-1
0	371239	66.91	-1
0	371808	67.01	-1
0	372368	67.11	-1
0	372928	67.21	-1
0	373488	67.31	-1
0	374048	67.41	-1
0	374608	67.51	-1
0	375168	67.61	-1
0	375728	67.71	-1
0	376288	67.81	-1
0	376848	67.91	-1
0	377417	68.01	-1
0	377977	68.11	-1
0	378537	68.21	-1
0	379097	68.31	-1
0	379657	68.41	-1
0	380217	68.51	-1
0	380777	68.61	-1
0	381337	68.71	-1
0	381897	68.81	-1
0	382457	68.91	-1
0	383026	69.01	-1
0	383586	69.11	-1
0	384146	69.21	-1
0	384706	69.31	-1
0	385266	69.41	-1
0	385826	69.51	-1
0	386386	69.61	-1
0	386946	69.71	-1
0	387506	69.81	-1
0	388066	69.91	-1
0	388728	70.01	-1
0	389287	70.11	-1
0	389846	70.21	-1
0	390405	70.31	-1
0	390964	70.41	-1
0	391523	70.51	-1
0	392082	70.61	-1
0	392641	70.71	-1
0	393200	70.81	-1
0	393759	70.91	-1
0	394327	71.01	-1
0	394886	71.11	-1
0	395445	71.21	-1
0	396004	71.31	-1
0	396563	71.41	-1
0	397122	71.51	-1
0	397681	71.61	-1
0	398240	71.71	-1
0	398799	71.81	-1
0	399358	71.91	-1
0	399926	72.01	-1
0	400485	72.11	-1
0	401044	72.21	-1
0	401603	72.31	-1
0	402162	72.41	-1
0	402721	72.51	-1
0	403280	72.61	-1
0	403839	72.71	-1
0	404398	72.81	-1
0	404957	72.91	-1
0	405525	73.01	-1
0	406084	73.11	-1
0	406643	73.21	-1
0	407202	73.31	-1
0	407761	73.41	-1
0	408320	73.51	-1
0	408879	73.61	-1
0	409438	73.71	-1
0	409997	73.81	-1
0	410556	73.91	-1
0	411124	74.01	-1
0	411683	74.11	-1
0	412242	74.21	-1
0	412801	74.31	-1
0	413360	74.41	-1
0	413919	74.51	-1
0	414478	74.61	-1
0	415130	74.71	-1
0	415688	74.81	-1
0	416246	74.91	-1
0	416813	75.01	-1
0	417371	75.11	-1
0	417929	75.21	-1
0	418487	75.31	-1
0	419045	75.41	-1
0	419603	75.51	-1
0	420161	75.61	-1
0	420719	75.71	-1
0	421277	75.81	-1
0	421835	75.91	-1
0	422402	76.01	-1
0	422960	76.11	-1
0	423518	76.21	-1
0	424076	76.31	-1
0	424634	76.41	-1
0	425192	76.51	-1
0	425750	76.61	-1
0	426308	76.71	-1
0	426866	76.81	-1
0	427424	76.91	-1
0	427991	77.01	-1
0	428549	77.11	-1
0	429107	77.21	-1
0	429665	77.31	-1
0	430223	77.41	-1
0	430781	77.51	-1
0	431339	77.61	-1
0	431897	77.71	-1
0	432455	77.81	-1
0	433013	77.91	-1
0	433580	78.01	-1
0	434138	78.11	-1
0	434696	78.21	-1
0	435254	78.31	-1
0	435812	78.41	-1
0	436370	78.51	-1
0	436928	78.61	-1
0	437486	78.71	-1
0	438044	78.81	-1
0	438602	78.91	-1
0	439169	79.01	-1
0	439727	79.11	-1
0	440285	79.21	-1
0	441610	79.31	-1
0	442167	79.41	-1
0	442724	79.51	-1
0	443281	79.61	-1
0	443838	79.71	-1
0	444395	79.81	-1
0	444952	79.91	-1
0	445518	80.01	-1
0	446075	80.11	-1
0	446632	80.21	-1
0	447189	80.31	-1
0	447746	80.41	-1
0	448303	80.51	-1
0	448860	80.61	-1
0	449417	80.71	-1
0	449974	80.81	-1
0	450531	80.91	-1
0	451097	81.01	-1
0	451654	81.11	-1
0	452211	81.21	-1
0	452768	81.31	-1
0	453325	81.41	-1
0	453882	81.51	-1
0	454439	81.61	-1
0	454996	81.71	-1
0	455553	81.81	-1
0	456110	81.91	-1
0	456676	82.01	-1
0	457233	82.11	-1
0	457790	82.21	-1
0	458347	82.31	-1
0	458904	82.41	-1
0	459461	82.51	-1
0	460018	82.61	-1
0	460575	82.71	-1
0	461132	82.81	-1
0	461689	82.91	-1
0	462255	83.01	-1
0	462812	83.11	-1
0	463369	83.21	-1
0	463926	83.31	-1
0	464483	83.41	-1
0	465040	83.51	-1
0	465597	83.61	-1
0	466154	83.71	-1
0	466711	83.81	-1
0	467268	83.91	-1
0	467834	84.01	-1
0	468391	84.11	-1
0	468948	84.21	-1
0	469505	84.31	-1
0	470062	84.41	-1
0	470619	84.51	-1
0	471176	84.61	-1
0	471733	84.71	-1
0	472290	84.81	-1
0	472847	84.91	-1
0	473413	85.01	-1
0	473970	85.11	-1
0	474527	85.21	-1
0	475084	85.31	-1
0	475641	85.41	-1
0	476198	85.51	-1
0	476755	85.61	-1
0	477312	85.71	-1
0	477869	85.81	-1
0	478426	85.91	-1
0	478992	86.01	-1
0	479549	86.11	-1
0	480106	86.21	-1
0	480663	86.31	-1
0	481220	86.41	-1
0	481777	86.51	-1
0	482334	86.61	-1
0	482891	86.71	-1
0	483448	86.81	-1
0	484005	86.91	-1
0	484571	87.01	-1
0	485128	87.11	-1
0	485685	87.21	-1
0	486242	87.31	-1
0	486799	87.41	-1
0	487356	87.51	-1
0	487913	87.61	-1
0	488470	87.71	-1
0	489027	87.81	-1
0	489584	87.91	-1
0	490150	88.01	-1
0	490707	88.11	-1
0	491264	88.21	-1
0	491821	88.31	-1
0	492378	88.41	-1
0	492935	88.51	-1
0	493492	88.61	-1
0	494049	88.71	-1
0	494606	88.81	-1
0	495163	88.91	-1
0	495729	89.01	-1
0	496286	89.11	-1
0	496843	89.21	-1
0	497400	89.31	-1
0	497957	89.41	-1
0	498514	89.51	-1
0	499071	89.61	-1
0	499628	89.71	-1
0	500185	89.81	-1
0	500742	89.91	-1
0	501308	90.01	-1
0	501865	90.11	-1
0	502422	90.21	-1
0	502979	90.31	-1
0	503536	90.41	-1
0	504093	90.51	-1
0	504650	90.61	-1
0	505207	90.71	-1
0	505764	90.81	-1
0	506321	90.91	-1
0	506887	91.01	-1
0	507444	91.11	-1
0	508001	91.21	-1
0	508558	91.31	-1
0	509115	91.41	-1
0	509672	91.51	-1
0	510229	91.61	-1
0	510786	91.71	-1
0	511343	91.81	-1
0	511900	91.91	-1
0	512466	92.01	-1
0	513023	92.11	-1
0	513580	92.21	-1
0	514137	92.31	-1
0	514694	92.41	-1
0	515251	92.51	-1
0	515808	92.61	-1
0	516365	92.71	-1
0	516922	92.81	-1
0	517479	92.91	-1
0	518045	93.01	-1
0	518602	93.11	-1
0	519159	93.21	-1
0	519716	93.31	-1
0	520273	93.41	-1
0	520830	93.51	-1
0	521387	93.61	-1
0	521944	93.71	-1
0	522501	93.81	-1
0	523058	93.91	-1
0	523624	94.01	-1
0	524181	94.11	-1
0	524738	94.21	-1
0	525295	94.31	-1
0	525852	94.41	-1
0	526409	94.51	-1
0	526966	94.61	-1
0	527523	94.71	-1
0	528080	94.81	-1
0	528637	94.91	-1
0	529203	95.01	-1
0	529760	95.11	-1
0	530317	95.21	-1
0	530874	95.31	-1
0	531431	95.41	-1
0	531988	95.51	-1
0	532545	95.61	-1
0	533102	95.71	-1
0	533659	95.81	-1
0	534216	95.91	-1
0	534782	96.01	-1
0	535339	96.11	-1
0	535896	96.21	-1
0	536453	96.31	-1
0	537010	96.41	-1
0	537567	96.51	-1
0	538124	96.61	-1
0	538681	96.71	-1
0	539238	96.81	-1
0	539795	96.91	-1
0	540361	97.01	-1
0	540918	97.11	-1
0	541475	97.21	-1
0	542032	97.31	-1
0	542589	97.41	-1
0	543146	97.51	-1
0	543703	97.61	-1
0	544260	97.71	-1
0	544817	97.81	-1
0	545374	97.91	-1
0	545940	98.01	-1
0	546497	98.11	-1
0	547054	98.21	-1
0	547611	98.31	-1
0	548168	98.41	-1
0	548725	98.51	-1
0	549282	98.61	-1
0	549839	98.71	-1
0	550396	98.81	-1
0	550953	98.91	-1
0	551519	99.01	-1
0	552076	99.11	-1
0	552633	99.21	-1
0	553190	99.31	-1
0	553747	99.41	-1
0	554304	99.51	-1
0	554861	99.61	-1
0	555418	99.71	-1
0	555975	99.81	-1
0	556532	99.91	-1
1	113	1.11	0
1	670	1.21	0
1	1227	1.31	0
1	1784	1.41	0
1	2341	1.51	0
1	2898	1.61	0
1	3455	1.71	0
1	4012	1.81	0
1	4569	1.91	0
1	5135	2.01	0
1	5692	2.11	0
1	6249	2.21	0
1	6806	2.31	0
1	7363	2.41	0
1	7920	2.51	0
1	8477	2.61	0
1	9034	2.71	0
1	9591	2.81	0
1	10148	2.91	0
1	10714	3.01	0
1	11271	3.11	0
1	11828	3.21	0
1	12385	3.31	0
1	12942	3.41	0
1	13499	3.51	0
1	14056	3.61	0
1	14613	3.71	0
1	15170	3.81	0
1	15727	3.91	0
1	16293	4.01	0
1	16850	4.11	0
1	17407	4.21	0
1	17964	4.31	0
1	18521	4.41	0
1	19078	4.51	0
1	19635	4.61	0
1	20192	4.71	0
1	20749	4.81	0
1	21306	4.91	0
1	21872	5.01	0
1	22429	5.11	0
1	22986	5.21	0
1	23543	5.31	0
1	24100	5.41	0
1	24657	5.51	0
1	25214	5.61	0
1	25771	5.71	0
1	26328	5.81	0
1	26885	5.91	0
1	27451	6.01	0
1	28008	6.11	0
1	28565	6.21	0
1	29122	6.31	0
1	29679	6.41	0
1	30236	6.51	0
1	30793	6.61	0
1	31350	6.71	0
1	31907	6.81	0
1	32464	6.91	0
1	33030	7.01	0
1	33587	7.11	0
1	34144	7.21	0
1	34701	7.31	0
1	35258	7.41	0
1	35815	7.51	0
1	36372	7.61	0
1	36929	7.71	0
1	37486	7.81	0
1	38043	7.91	0
1	38609	8.01	0
1	39166	8.11	0
1	39723	8.21	0
1	40280	8.31	0
1	40837	8.41	0
1	41394	8.51	0
1	41951	8.61	0
1	42508	8.71	0
1	43065	8.81	0
1	43622	8.91	0
1	44188	9.01	0
1	44745	9.11	0
1	45302	9.21	0
1	45859	9.31	0
1	46416	9.41	0
1	46973	9.51	0
1	47530	9.61	0
1	48087	9.71	0
1	48644	9.81	0
1	49201	9.91	0
1	49852	10.01	0
1	50416	10.11	0
1	50980	10.21	0
1	51544	10.31	0
1	52108	10.41	0
1	52672	10.51	0
1	53236	10.61	0
1	53800	10.71	0
1	54364	10.81	0
1	54928	10.91	0
1	55501	11.01	0
1	56065	11.11	0
1	56629	11.21	0
1	57193	11.31	0
1	57757	11.41	0
1	58321	11.51	0
1	58885	11.61	0
1	59449	11.71	0
1	60013	11.81	0
1	60577	11.91	0
1	61150	12.01	0
1	61714	12.11	0
1	62278	12.21	0
1	62842	12.31	0
1	63406	12.41	0
1	63970	12.51	0
1	64534	12.61	0
1	65098	12.71	0
1	65662	12.81	0
1	66226	12.91	0
1	66799	13.01	0
1	67363	13.11	0
1	67927	13.21	0
1	68491	13.31	0
1	69055	13.41	0
1	69619	13.51	0
1	70183	13.61	0
1	70747	13.71	0
1	71311	13.81	0
1	71875	13.91	0
1	72448	14.01	0
1	73012	14.11	0
1	73576	14.21	0
1	74140	14.31	0
1	74704	14.41	0
1	75268	14.51	0
1	75832	14.61	0
1	76396	14.71	0
1	76960	14.81	0
1	77524	14.91	0
1	78097	15.01	0
1	78661	15.11	0
1	79225	15.21	0
1	79789	15.31	0
1	80353	15.41	0
1	80917	15.51	0
1	81481	15.61	0
1	82045	15.71	0
1	82609	15.81	0
1	83173	15.91	0
1	83746	16.01	0
1	84310	16.11	0
1	84874	16.21	0
1	85438	16.31	0
1	86002	16.41	0
1	86566	16.51	0
1	87130	16.61	0
1	87694	16.71	0
1	88258	16.81	0
1	88822	16.91	0
1	89395	17.01	0
1	89959	17.11	0
1	90523	17.21	0
1	91087	17.31	0
1	91651	17.41	0
1	92215	17.51	0
1	92779	17.61	0
1	93343	17.71	0
1	93907	17.81	0
1	94471	17.91	0
1	95044	18.01	0
1	95608	18.11	0
1	96172	18.21	0
1	96736	18.31	0
1	97300	18.41	0
1	97864	18.51	0
1	98428	18.61	0
1	98992	18.71	0
1	99556	18.81	0
1	100120	18.91	0
1	100693	19.01	0
1	101257	19.11	0
1	101821	19.21	0
1	102385	19.31	0
1	102949	19.41	0
1	103513	19.51	0
1	104077	19.61	0
1	104641	19.71	0
1	105205	19.81	0
1	105769	19.91	0
1	106342	20.01	0
1	106906	20.11	0
1	107470	20.21	0
1	108034	20.31	0
1	108598	20.41	0
1	109162	20.51	0
1	109726	20.61	0
1	110290	20.71	0
1	110854	20.81	0
1	111418	20.91	0
1	111991	21.01	0
1	112555	21.11	0
1	113119	21.21	0
1	113683	21.31	0
1	114247	21.41	0
1	114811	21.51	0
1	115375	21.61	0
1	115939	21.71	0
1	116503	21.81	0
1	117067	21.91	0
1	117640	22.01	0
1	118204	22.11	0
1	118768	22.21	0
1	119332	22.31	0
1	119896	22.41	0
1	120460	22.51	0
1	121024	22.61	0
1	121588	22.71	0
1	122152	22.81	0
1	122716	22.91	0
1	123289	23.01	0
1	123853	23.11	0
1	124417	23.21	0
1	124981	23.31	0
1	125545	23.41	0
1	126109	23.51	0
1	126673	23.61	0
1	127237	23.71	0
1	127801	23.81	0
1	128365	23.91	0
1	128938	24.01	0
1	129502	24.11	0
1	130066	24.21	0
1	130630	24.31	0
1	131194	24.41	0
1	131758	24.51	0
1	132322	24.61	0
1	132886	24.71	0
1	133450	24.81	0
1	134014	24.91	0
1	134587	25.01	0
1	135151	25.11	0
1	135715	25.21	0
1	136279	25.31	0
1	136843	25.41	0
1	137407	25.51	0
1	137971	25.61	0
1	138535	25.71	0
1	139099	25.81	0
1	139663	25.91	0
1	140236	26.01	0
1	140800	26.11	0
1	141364	26.21	0
1	141928	26.31	0
1	142492	26.41	0
1	143056	26.51	0
1	143620	26.61	0
1	144184	26.71	0
1	144748	26.81	0
1	145312	26.91	0
1	145885	27.01	0
1	146449	27.11	0
1	147013	27.21	0
1	147577	27.31	0
1	148141	27.41	0
1	148705	27.51	0
1	149269	27.61	0
1	149833	27.71	0
1	150397	27.81	0
1	150961	27.91	0
1	151534	28.01	0
1	152098	28.11	0
1	152662	28.21	0
1	153226	28.31	0
1	153790	28.41	0
1	154354	28.51	0
1	154918	28.61	0
1	155482	28.71	0
1	156046	28.81	0
1	156610	28.91	0
1	157183	29.01	0
1	157747	29.11	0
1	158311	29.21	0
1	158875	29.31	0
1	159439	29.41	0
1	160003	29.51	0
1	160567	29.61	0
1	161131	29.71	0
1	161695	29.81	0
1	162259	29.91	0
1	162832	30.01	0
1	163396	30.11	0
1	163960	30.21	0
1	164524	30.31	0
1	165088	30.41	0
1	165652	30.51	0
1	166216	30.61	0
1	166780	30.71	0
1	167344	30.81	0
1	167908	30.91	0
1	168481	31.01	0
1	169045	31.11	0
1	169609	31.21	0
1	170173	31.31	0
1	170737	31.41	0
1	171301	31.51	0
1	171865	31.61	0
1	172429	31.71	0
1	172993	31.81	0
1	173557	31.91	0
1	174130	32.01	0
1	174694	32.11	0
1	175258	32.21	0
1	175822	32.31	0
1	176386	32.41	0
1	176950	32.51	0
1	177514	32.61	0
1	178078	32.71	0
1	178642	32.81	0
1	179206	32.91	0
1	179779	33.01	0
1	180343	33.11	0
1	180907	33.21	0
1	181471	33.31	0
1	182035	33.41	0
1	182599	33.51	0
1	183163	33.61	0
1	183727	33.71	0
1	184291	33.81	0
1	184855	33.91	0
1	185428	34.01	0
1	185992	34.11	0
1	186556	34.21	0
1	187120	34.31	0
1	187684	34.41	0
1	188248	34.51	0
1	188812	34.61	0
1	189376	34.71	0
1	189940	34.81	0
1	190504	34.91	0
1	191077	35.01	0
1	191641	35.11	0
1	192205	35.21	0
1	192769	35.31	0
1	193333	35.41	0
1	193897	35.51	0
1	194461	35.61	0
1	195025	35.71	0
1	195589	35.81	0
1	196153	35.91	0
1	196726	36.01	0
1	197290	36.11	0
1	197854	36.21	0
1	198418	36.31	0
1	198982	36.41	0
1	199546	36.51	0
1	200110	36.61	0
1	200674	36.71	0
1	201238	36.81	0
1	201802	36.91	0
1	202375	37.01	0
1	202939	37.11	0
1	203503	37.21	0
1	204067	37.31	0
1	204631	37.41	0
1	205195	37.51	0
1	205759	37.61	0
1	206323	37.71	0
1	206887	37.81	0
1	207451	37.91	0
1	208024	38.01	0
1	208588	38.11	0
1	209152	38.21	0
1	209716	38.31	0
1	210280	38.41	0
1	210844	38.51	0
1	211408	38.61	0
1	211972	38.71	0
1	212536	38.81	0
1	213100	38.91	0
1	213673	39.01	0
1	214237	39.11	0
1	214801	39.21	0
1	215365	39.31	0
1	215929	39.41	0
1	216493	39.51	0
1	217057	39.61	0
1	217621	39.71	0
1	218185	39.81	0
1	218749	39.91	0
1	219322	40.01	0
1	219886	40.11	0
1	220450	40.21	0
1	221014	40.31	0
1	221578	40.41	0
1	222142	40.51	0
1	222706	40.61	0
1	223270	40.71	0
1	223834	40.81	0
1	224398	40.91	0
1	224971	41.01	0
1	225535	41.11	0
1	226099	41.21	0
1	226663	41.31	0
1	227227	41.41	0
1	227791	41.51	0
1	228355	41.61	0
1	228919	41.71	0
1	229483	41.81	0
1	230047	41.91	0
1	230620	42.01	0
1	231184	42.11	0
1	231748	42.21	0
1	232312	42.31	0
1	232876	42.41	0
1	233440	42.51	0
1	234004	42.61	0
1	234568	42.71	0
1	235132	42.81	0
1	235696	42.91	0
1	236269	43.01	0
1	236833	43.11	0
1	237397	43.21	0
1	237961	43.31	0
1	238525	43.41	0
1	239089	43.51	0
1	239653	43.61	0
1	240217	43.71	0
1	240781	43.81	0
1	241345	43.91	0
1	241918	44.01	0
1	242482	44.11	0
1	243046	44.21	0
1	243610	44.31	0
1	244174	44.41	0
1	244738	44.51	0
1	245302	44.61	0
1	245866	44.71	0
1	246430	44.81	0
1	246994	44.91	0
1	247567	45.01	0
1	248131	45.11	0
1	248695	45.21	0
1	249259	45.31	0
1	249823	45.41	0
1	250387	45.51	0
1	250951	45.61	0
1	251515	45.71	0
1	252079	45.81	0
1	252643	45.91	0
1	253216	46.01	0
1	253780	46.11	0
1	254344	46.21	0
1	254908	46.31	0
1	255472	46.41	0
1	256036	46.51	0
1	256600	46.61	0
1	257164	46.71	0
1	257728	46.81	0
1	258292	46.91	0
1	258865	47.01	0
1	259429	47.11	0
1	259993	47.21	0
1	260557	47.31	0
1	261121	47.41	0
1	261685	47.51	0
1	262249	47.61	0
1	262813	47.71	0
1	263377	47.81	0
1	264034	47.91	0
1	264606	48.01	0
1	265169	48.11	0
1	265732	48.21	0
1	266295	48.31	0
1	266858	48.41	0
1	267421	48.51	0
1	267984	48.61	0
1	268547	48.71	0
1	269110	48.81	0
1	269673	48.91	0
1	270245	49.01	0
1	270808	49.11	0
1	271371	49.21	0
1	271934	49.31	0
1	272497	49.41	0
1	273060	49.51	0
1	273623	49.61	0
1	274186	49.71	0
1	274749	49.81	0
1	275312	49.91	0
1	275884	50.01	0
1	276447	50.11	0
1	277010	50.21	0
1	277573	50.31	0
1	278136	50.41	0
1	278699	50.51	0
1	279262	50.61	0
1	279825	50.71	0
1	280388	50.81	0
1	280951	50.91	0
1	281523	51.01	0
1	282086	51.11	0
1	282649	51.21	0
1	283212	51.31	0
1	283775	51.41	0
1	284338	51.51	0
1	284901	51.61	0
1	285464	51.71	0
1	286027	51.81	0
1	286590	51.91	0
1	287162	52.01	0
1	287725	52.11	0
1	288288	52.21	0
1	288851	52.31	0
1	289414	52.41	0
1	289977	52.51	0
1	290540	52.61	0
1	291103	52.71	0
1	291666	52.81	0
1	292229	52.91	0
1	292801	53.01	0
1	293364	53.11	0
1	293927	53.21	0
1	294490	53.31	0
1	295053	53.41	0
1	295616	53.51	0
1	296179	53.61	0
1	296742	53.71	0
1	297305	53.81	0
1	297868	53.91	0
1	298440	54.01	0
1	299003	54.11	0
1	299659	54.21	0
1	300221	54.31	0
1	300783	54.41	0
1	301345	54.51	0
1	301907	54.61	0
1	302469	54.71	0
1	303031	54.81	0
1	303593	54.91	0
1	304164	55.01	0
1	304726	55.11	0
1	305288	55.21	0
1	305850	55.31	0
1	306412	55.41	0
1	306974	55.51	0
1	307536	55.61	0
1	308098	55.71	0
1	308660	55.81	0
1	309222	55.91	0
1	309793	56.01	0
1	310355	56.11	0
1	310917	56.21	0
1	311479	56.31	0
1	312041	56.41	0
1	312603	56.51	0
1	313165	56.61	0
1	313727	56.71	0
1	314289	56.81	0
1	314851	56.91	0
1	315422	57.01	0
1	315984	57.11	0
1	316546	57.21	0
1	317108	57.31	0
1	317670	57.41	0
1	318232	57.51	0
1	318794	57.61	0
1	319356	57.71	0
1	319918	57.81	0
1	320480	57.91	0
1	321051	58.01	0
1	321613	58.11	0
1	322175	58.21	0
1	322737	58.31	0
1	323299	58.41	0
1	323861	58.51	0
1	324423	58.61	0
1	324985	58.71	0
1	325547	58.81	0
1	326109	58.91	0
1	326680	59.01	0
1	327242	59.11	0
1	327804	59.21	0
1	328366	59.31	0
1	328928	59.41	0
1	329490	59.51	0
1	330052	59.61	0
1	330614	59.71	0
1	331176	59.81	0
1	331831	59.91	0
1	332401	60.01	0
1	332962	60.11	0
1	333523	60.21	0
1	334084	60.31	0
1	334645	60.41	0
1	335206	60.51	0
1	335767	60.61	0
1	336328	60.71	0
1	336889	60.81	0
1	337450	60.91	0
1	338020	61.01	0
1	338581	61.11	0
1	339142	61.21	0
1	339703	61.31	0
1	340264	61.41	0
1	340825	61.51	0
1	341386	61.61	0
1	341947	61.71	0
1	342508	61.81	0
1	343069	61.91	0
1	343639	62.01	0
1	344200	62.11	0
1	344761	62.21	0
1	345322	62.31	0
1	345883	62.41	0
1	346444	62.51	0
1	347005	62.61	0
1	347566	62.71	0
1	348127	62.81	0
1	348688	62.91	0
1	349258	63.01	0
1	349819	63.11	0
1	350380	63.21	0
1	350941	63.31	0
1	351502	63.41	0
1	352063	63.51	0
1	352624	63.61	0
1	353185	63.71	0
1	353746	63.81	0
1	354307	63.91	0
1	354877	64.01	0
1	355438	64.11	0
1	355999	64.21	0
1	356560	64.31	0
1	357121	64.41	0
1	357682	64.51	0
1	358243	64.61	0
1	358804	64.71	0
1	359365	64.81	0
1	359926	64.91	0
1	360496	65.01	0
1	361150	65.11	0
1	361710	65.21	0
1	362270	65.31	0
1	362830	65.41	0
1	363390	65.51	0
1	363950	65.61	0
1	364510	65.71	0
1	365070	65.81	0
1	365630	65.91	0
1	366199	66.01	0
1	366759	66.11	0
1	367319	66.21	0
1	367879	66.31	0
1	368439	66.41	0
1	368999	66.51	0
1	369559	66.61	0
1	370119	66.71	0
1	370679	66.81	0
1	371239	66.91	0
1	371808	67.01	0
1	372368	67.11	0
1	372928	67.21	0
1	373488	67.31	0
1	374048	67.41	0
1	374608	67.51	0
1	375168	67.61	0
1	375728	67.71	0
1	376288	67.81	0
1	376848	67.91	0
1	377417	68.01	0
1	377977	68.11	0
1	378537	68.21	0
1	379097	68.31	0
1	379657	68.41	0
1	380217	68.51	0
1	380777	68.61	0
1	381337	68.71	0
1	381897	68.81	0
1	382457	68.91	0
1	383026	69.01	0
1	383586	69.11	0
1	384146	69.21	0
1	384706	69.31	0
1	385266	69.41	0
1	385826	69.51	0
1	386386	69.61	0
1	386946	69.71	0
1	387506	69.81	0
1	388066	69.91	0
1	388728	70.01	0
1	389287	70.11	0
1	389846	70.21	0
1	390405	70.31	0
1	390964	70.41	0
1	391523	70.51	0
1	392082	70.61	0
1	392641	70.71	0
1	393200	70.81	0
1	393759	70.91	0
1	394327	71.01	0
1	394886	71.11	0
1	395445	71.21	0
1	396004	71.31	0
1	396563	71.41	0
1	397122	71.51	0
1	397681	71.61	0
1	398240	71.71	0
1	398799	71.81	0
1	399358	71.91	0
1	399926	72.01	0
1	400485	72.11	0
1	401044	72.21	0
1	401603	72.31	0
1	402162	72.41	0
1	402721	72.51	0
1	403280	72.61	0
1	403839	72.71	0
1	404398	72.81	0
1	404957	72.91	0
1	405525	73.01	0
1	406084	73.11	0
1	406643	73.21	0
1	407202	73.31	0
1	407761	73.41	0
1	408320	73.51	0
1	408879	73.61	0
1	409438	73.71	0
1	409997	73.81	0
1	410556	73.91	0
1	411124	74.01	0
1	411683	74.11	0
1	412242	74.21	0
1	412801	74.31	0
1	413360	74.41	0
1	413919	74.51	0
1	414478	74.61	0
1	415130	74.71	0
1	415688	74.81	0
1	416246	74.91	0
1	416813	75.01	0
1	417371	75.11	0
1	417929	75.21	0
1	418487	75.31	0
1	419045	75.41	0
1	419603	75.51	0
1	420161	75.61	0
1	420719	75.71	0
1	421277	75.81	0
1	421835	75.91	0
1	422402	76.01	0
1	422960	76.11	0
1	423518	76.21	0
1	424076	76.31	0
1	424634	76.41	0
1	425192	76.51	0
1	425750	76.61	0
1	426308	76.71	0
1	426866	76.81	0
1	427424	76.91	0
1	427991	77.01	0
1	428549	77.11	0
1	429107	77.21	0
1	429665	77.31	0
1	430223	77.41	0
1	430781	77.51	0
1	431339	77.61	0
1	431897	77.71	0
1	432455	77.81	0
1	433013	77.91	0
1	433580	78.01	0
1	434138	78.11	0
1	434696	78.21	0
1	435254	78.31	0
1	435812	78.41	0
1	436370	78.51	0
1	436928	78.61	0
1	437486	78.71	0
1	438044	78.81	0
1	438602	78.91	0
1	439169	79.01	0
1	439727	79.11	0
1	440285	79.21	0
1	441610	79.31	0
1	442167	79.41	0
1	442724	79.51	0
1	443281	79.61	0
1	443838	79.71	0
1	444395	79.81	0
1	444952	79.91	0
1	445518	80.01	0
1	446075	80.11	0
1	446632	80.21	0
1	447189	80.31	0
1	447746	80.41	0
1	448303	80.51	0
1	448860	80.61	0
1	449417	80.71	0
1	449974	80.81	0
1	450531	80.91	0
1	451097	81.01	0
1	451654	81.11	0
1	452211	81.21	0
1	452768	81.31	0
1	453325	81.41	0
1	453882	81.51	0
1	454439	81.61	0
1	454996	81.71	0
1	455553	81.81	0
1	456110	81.91	0
1	456676	82.01	0
1	457233	82.11	0
1	457790	82.21	0
1	458347	82.31	0
1	458904	82.41	0
1	459461	82.51	0
1	460018	82.61	0
1	460575	82.71	0
1	461132	82.81	0
1	461689	82.91	0
1	462255	83.01	0
1	462812	83.11	0
1	463369	83.21	0
1	463926	83.31	0
1	464483	83.41	0
1	465040	83.51	0
1	465597	83.61	0
1	466154	83.71	0
1	466711	83.81	0
1	467268	83.91	0
1	467834	84.01	0
1	468391	84.11	0
1	468948	84.21	0
1	469505	84.31	0
1	470062	84.41	0
1	470619	84.51	0
1	471176	84.61	0
1	471733	84.71	0
1	472290	84.81	0
1	472847	84.91	0
1	473413	85.01	0
1	473970	85.11	0
1	474527	85.21	0
1	475084	85.31	0
1	475641	85.41	0
1	476198	85.51	0
1	476755	85.61	0
1	477312	85.71	0
1	477869	85.81	0
1	478426	85.91	0
1	478992	86.01	0
1	479549	86.11	0
1	480106	86.21	0
1	480663	86.31	0
1	481220	86.41	0
1	481777	86.51	0
1	482334	86.61	0
1	482891	86.71	0
1	483448	86.81	0
1	484005	86.91	0
1	484571	87.01	0
1	485128	87.11	0
1	485685	87.21	0
1	486242	87.31	0
1	486799	87.41	0
1	487356	87.51	0
1	487913	87.61	0
1	488470	87.71	0
1	489027	87.81	0
1	489584	87.91	0
1	490150	88.01	0
1	490707	88.11	0
1	491264	88.21	0
1	491821	88.31	0
1	492378	88.41	0
1	492935	88.51	0
1	493492	88.61	0
1	494049	88.71	0
1	494606	88.81	0
1	495163	88.91	0
1	495729	89.01	0
1	496286	89.11	0
1	496843	89.21	0
1	497400	89.31	0
1	497957	89.41	0
1	498514	89.51	0
1	499071	89.61	0
1	499628	89.71	0
1	500185	89.81	0
1	500742	89.91	0
1	501308	90.01	0
1	501865	90.11	0
1	502422	90.21	0
1	502979	90.31	0
1	503536	90.41	0
1	504093	90.51	0
1	504650	90.61	0
1	505207	90.71	0
1	505764	90.81	0
1	506321	90.91	0
1	506887	91.01	0
1	507444	91.11	0
1	508001	91.21	0
1	508558	91.31	0
1	509115	91.41	0
1	509672	91.51	0
1	510229	91.61	0
1	510786	91.71	0
1	511343	91.81	0
1	511900	91.91	0
1	512466	92.01	0
1	513023	92.11	0
1	513580	92.21	0
1	514137	92.31	0
1	514694	92.41	0
1	515251	92.51	0
1	515808	92.61	0
1	516365	92.71	0
1	516922	92.81	0
1	517479	92.91	0
1	518045	93.01	0
1	518602	93.11	0
1	519159	93.21	0
1	519716	93.31	0
1	520273	93.41	0
1	520830	93.51	0
1	521387	93.61	0
1	521944	93.71	0
1	522501	93.81	0
1	523058	93.91	0
1	523624	94.01	0
1	524181	94.11	0
1	524738	94.21	0
1	525295	94.31	0
1	525852	94.41	0
1	526409	94.51	0
1	526966	94.61	0
1	527523	94.71	0
1	528080	94.81	0
1	528637	94.91	0
1	529203	95.01	0
1	529760	95.11	0
1	530317	95.21	0
1	530874	95.31	0
1	531431	95.41	0
1	531988	95.51	0
1	532545	95.61	0
1	533102	95.71	0
1	533659	95.81	0
1	534216	95.91	0
1	534782	96.01	0
1	535339	96.11	0
1	535896	96.21	0
1	536453	96.31	0
1	537010	96.41	0
1	537567	96.51	0
1	538124	96.61	0
1	538681	96.71	0
1	539238	96.81	0
1	539795	96.91	0
1	540361	97.01	0
1	540918	97.11	0
1	541475	97.21	0
1	542032	97.31	0
1	542589	97.41	0
1	543146	97.51	0
1	543703	97.61	0
1	544260	97.71	0
1	544817	97.81	0
1	545374	97.91	0
1	545940	98.01	0
1	546497	98.11	0
1	547054	98.21	0
1	547611	98.31	0
1	548168	98.41	0
1	548725	98.51	0
1	549282	98.61	0
1	549839	98.71	0
1	550396	98.81	0
1	550953	98.91	0
1	551519	99.01	0
1	552076	99.11	0
1	552633	99.21	0
1	553190	99.31	0
1	553747	99.41	0
1	554304	99.51	0
1	554861	99.61	0
1	555418	99.71	0
1	555975	99.81	0
1	556532	99.91	0
2	113	1.11	0
2	670	1.21	0
2	1227	1.31	0
2	1784	1.41	0
2	2341	1.51	0
2	2898	1.61	0
2	3455	1.71	0
2	4012	1.81	0
2	4569	1.91	0
2	5135	2.01	0
2	5692	2.11	0
2	6249	2.21	0
2	6806	2.31	0
2	7363	2.41	0
2	7920	2.51	0
2	8477	2.61	0
2	9034	2.71	0
2	9591	2.81	0
2	10148	2.91	0
2	10714	3.01	0
2	11271	3.11	0
2	11828	3.21	0
2	12385	3.31	0
2	12942	3.41	0
2	13499	3.51	0
2	14056	3.61	0
2	14613	3.71	0
2	15170	3.81	0
2	15727	3.91	0
2	16293	4.01	0
2	16850	4.11	0
2	17407	4.21	0
2	17964	4.31	0
2	18521	4.41	0
2	19078	4.51	0
2	19635	4.61	0
2	20192	4.71	0
2	20749	4.81	0
2	21306	4.91	0
2	21872	5.01	0
2	22429	5.11	0
2	22986	5.21	0
2	23543	5.31	0
2	24100	5.41	0
2	24657	5.51	0
2	25214	5.61	0
2	25771	5.71	0
2	26328	5.81	0
2	26885	5.91	0
2	27451	6.01	0
2	28008	6.11	0
2	28565	6.21	0
2	29122	6.31	0
2	29679	6.41	0
2	30236	6.51	0
2	30793	6.61	0
2	31350	6.71	0
2	31907	6.81	0
2	32464	6.91	0
2	33030	7.01	0
2	33587	7.11	0
2	34144	7.21	0
2	34701	7.31	0
2	35258	7.41	0
2	35815	7.51	0
2	36372	7.61	0
2	36929	7.71	0
2	37486	7.81	0
2	38043	7.91	0
2	38609	8.01	0
2	39166	8.11	0
2	39723	8.21	0
2	40280	8.31	0
2	40837	8.41	0
2	41394	8.51	0
2	41951	8.61	0
2	42508	8.71	0
2	43065	8.81	0
2	43622	8.91	0
2	44188	9.01	0
2	44745	9.11	0
2	45302	9.21	0
2	45859	9.31	0
2	46416	9.41	0
2	46973	9.51	0
2	47530	9.61	0
2	48087	9.71	0
2	48644	9.81	0
2	49201	9.91	0
2	49852	10.01	0
2	50416	10.11	0
2	50980	10.21	0
2	51544	10.31	0
2	52108	10.41	0
2	52672	10.51	0
2	53236	10.61	0
2	53800	10.71	0
2	54364	10.81	0
2	54928	10.91	0
2	55501	11.01	0
2	56065	11.11	0
2	56629	11.21	0
2	57193	11.31	0
2	57757	11.41	0
2	58321	11.51	0
2	58885	11.61	0
2	59449	11.71	0
2	60013	11.81	0
2	60577	11.91	0
2	61150	12.01	0
2	61714	12.11	0
2	62278	12.21	0
2	62842	12.31	0
2	63406	12.41	0
2	63970	12.51	0
2	64534	12.61	0
2	65098	12.71	0
2	65662	12.81	0
2	66226	12.91	0
2	66799	13.01	0
2	67363	13.11	0
2	67927	13.21	0
2	68491	13.31	0
2	69055	13.41	0
2	69619	13.51	0
2	70183	13.61	0
2	70747	13.71	0
2	71311	13.81	0
2	71875	13.91	0
2	72448	14.01	0
2	73012	14.11	0
2	73576	14.21	0
2	74140	14.31	0
2	74704	14.41	0
2	75268	14.51	0
2	75832	14.61	0
2	76396	14.71	0
2	76960	14.81	0
2	77524	14.91	0
2	78097	15.01	0
2	78661	15.11	0
2	79225	15.21	0
2	79789	15.31	0
2	80353	15.41	0
2	80917	15.51	0
2	81481	15.61	0
2	82045	15.71	0
2	82609	15.81	0
2	83173	15.91	0
2	83746	16.01	0
2	84310	16.11	0
2	84874	16.21	0
2	85438	16.31	0
2	86002	16.41	0
2	86566	16.51	0
2	87130	16.61	0
2	87694	16.71	0
2	88258	16.81	0
2	88822	16.91	0
2	89395	17.01	0
2	89959	17.11	0
2	90523	17.21	0
2	91087	17.31	0
2	91651	17.41	0
2	92215	17.51	0
2	92779	17.61	0
2	93343	17.71	0
2	93907	17.81	0
2	94471	17.91	0
2	95044	18.01	0
2	95608	18.11	0
2	96172	18.21	0
2	96736	18.31	0
2	97300	18.41	0
2	97864	18.51	0
2	98428	18.61	0
2	98992	18.71	0
2	99556	18.81	0
2	100120	18.91	0
2	100693	19.01	0
2	101257	19.11	0
2	101821	19.21	0
2	102385	19.31	0
2	102949	19.41	0
2	103513	19.51	0
2	104077	19.61	0
2	104641	19.71	0
2	105205	19.81	0
2	105769	19.91	0
2	106342	20.01	0
2	106906	20.11	0
2	107470	20.21	0
2	108034	20.31	0
2	108598	20.41	0
2	109162	20.51	0
2	109726	20.61	0
2	110290	20.71	0
2	110854	20.81	0
2	111418	20.91	0
2	111991	21.01	0
2	112555	21.11	0
2	113119	21.21	0
2	113683	21.31	0
2	114247	21.41	0
2	114811	21.51	0
2	115375	21.61	0
2	115939	21.71	0
2	116503	21.81	0
2	117067	21.91	0
2	117640	22.01	0
2	118204	22.11	0
2	118768	22.21	0
2	119332	22.31	0
2	119896	22.41	0
2	120460	22.51	0
2	121024	22.61	0
2	121588	22.71	0
2	122152	22.81	0
2	122716	22.91	0
2	123289	23.01	0
2	123853	23.11	0
2	124417	23.21	0
2	124981	23.31	0
2	125545	23.41	0
2	126109	23.51	0
2	126673	23.61	0
2	127237	23.71	0
2	127801	23.81	0
2	128365	23.91	0
2	128938	24.01	0
2	129502	24.11	0
2	130066	24.21	0
2	130630	24.31	0
2	131194	24.41	0
2	131758	24.51	0
2	132322	24.61	0
2	132886	24.71	0
2	133450	24.81	0
2	134014	24.91	0
2	134587	25.01	0
2	135151	25.11	0
2	135715	25.21	0
2	136279	25.31	0
2	136843	25.41	0
2	137407	25.51	0
2	137971	25.61	0
2	138535	25.71	0
2	139099	25.81	0
2	139663	25.91	0
2	140236	26.01	0
2	140800	26.11	0
2	141364	26.21	0
2	141928	26.31	0
2	142492	26.41	0
2	143056	26.51	0
2	143620	26.61	0
2	144184	26.71	0
2	144748	26.81	0
2	145312	26.91	0
2	145885	27.01	0
2	146449	27.11	0
2	147013	27.21	0
2	147577	27.31	0
2	148141	27.41	0
2	148705	27.51	0
2	149269	27.61	0
2	149833	27.71	0
2	150397	27.81	0
2	150961	27.91	0
2	151534	28.01	0
2	152098	28.11	0
2	152662	28.21	0
2	153226	28.31	0
2	153790	28.41	0
2	154354	28.51	0
2	154918	28.61	0
2	155482	28.71	0
2	156046	28.81	0
2	156610	28.91	0
2	157183	29.01	0
2	157747	29.11	0
2	158311	29.21	0
2	158875	29.31	0
2	159439	29.41	0
2	160003	29.51	0
2	160567	29.61	0
2	161131	29.71	0
2	161695	29.81	0
2	162259	29.91	0
2	162832	30.01	0
2	163396	30.11	0
2	163960	30.21	0
2	164524	30.31	0
2	165088	30.41	0
2	165652	30.51	0
2	166216	30.61	0
2	166780	30.71	0
2	167344	30.81	0
2	167908	30.91	0
2	168481	31.01	0
2	169045	31.11	0
2	169609	31.21	0
2	170173	31.31	0
2	170737	31.41	0
2	171301	31.51	0
2	171865	31.61	0
2	172429	31.71	0
2	172993	31.81	0
2	173557	31.91	0
2	174130	32.01	0
2	174694	32.11	0
2	175258	32.21	0
2	175822	32.31	0
2	176386	32.41	0
2	176950	32.51	0
2	177514	32.61	0
2	178078	32.71	0
2	178642	32.81	0
2	179206	32.91	0
2	179779	33.01	0
2	180343	33.11	0
2	180907	33.21	0
2	181471	33.31	0
2	182035	33.41	0
2	182599	33.51	0
2	183163	33.61	0
2	183727	33.71	0
2	184291	33.81	0
2	184855	33.91	0
2	185428	34.01	0
2	185992	34.11	0
2	186556	34.21	0
2	187120	34.31	0
2	187684	34.41	0
2	188248	34.51	0
2	188812	34.61	0
2	189376	34.71	0
2	189940	34.81	0
2	190504	34.91	0
2	191077	35.01	0
2	191641	35.11	0
2	192205	35.21	0
2	192769	35.31	0
2	193333	35.41	0
2	193897	35.51	0
2	194461	35.61	0
2	195025	35.71	0
2	195589	35.81	0
2	196153	35.91	0
2	196726	36.01	0
2	197290	36.11	0
2	197854	36.21	0
2	198418	36.31	0
2	198982	36.41	0
2	199546	36.51	0
2	200110	36.61	0
2	200674	36.71	0
2	201238	36.81	0
2	201802	36.91	0
2	202375	37.01	0
2	202939	37.11	0
2	203503	37.21	0
2	204067	37.31	0
2	204631	37.41	0
2	205195	37.51	0
2	205759	37.61	0
2	206323	37.71	0
2	206887	37.81	0
2	207451	37.91	0
2	208024	38.01	0
2	208588	38.11	0
2	209152	38.21	0
2	209716	38.31	0
2	210280	38.41	0
2	210844	38.51	0
2	211408	38.61	0
2	211972	38.71	0
2	212536	38.81	0
2	213100	38.91	0
2	213673	39.01	0
2	214237	39.11	0
2	214801	39.21	0
2	215365	39.31	0
2	215929	39.41	0
2	216493	39.51	0
2	217057	39.61	0
2	217621	39.71	0
2	218185	39.81	0
2	218749	39.91	0
2	219322	40.01	0
2	219886	40.11	0
2	220450	40.21	0
2	221014	40.31	0
2	221578	40.41	0
2	222142	40.51	0
2	222706	40.61	0
2	223270	40.71	0
2	223834	40.81	0
2	224398	40.91	0
2	224971	41.01	0
2	225535	41.11	0
2	226099	41.21	0
2	226663	41.31	0
2	227227	41.41	0
2	227791	41.51	0
2	228355	41.61	0
2	228919	41.71	0
2	229483	41.81	0
2	230047	41.91	0
2	230620	42.01	0
2	231184	42.11	0
2	231748	42.21	0
2	232312	42.31	0
2	232876	42.41	0
2	233440	42.51	0
2	234004	42.61	0
2	234568	42.71	0
2	235132	42.81	0
2	235696	42.91	0
2	236269	43.01	0
2	236833	43.11	0
2	237397	43.21	0
2	237961	43.31	0
2	238525	43.41	0
2	239089	43.51	0
2	239653	43.61	0
2	240217	43.71	0
2	240781	43.81	0
2	241345	43.91	0
2	241918	44.01	0
2	242482	44.11	0
2	243046	44.21	0
2	243610	44.31	0
2	244174	44.41	0
2	244738	44.51	0
2	245302	44.61	0
2	245866	44.71	0
2	246430	44.81	0
2	246994	44.91	0
2	247567	45.01	0
2	248131	45.11	0
2	248695	45.21	0
2	249259	45.31	0
2	249823	45.41	0
2	250387	45.51	0
2	250951	45.61	0
2	251515	45.71	0
2	252079	45.81	0
2	252643	45.91	0
2	253216	46.01	0
2	253780	46.11	0
2	254344	46.21	0
2	254908	46.31	0
2	255472	46.41	0
2	256036	46.51	0
2	256600	46.61	0
2	257164	46.71	0
2	257728	46.81	0
2	258292	46.91	0
2	258865	47.01	0
2	259429	47.11	0
2	259993	47.21	0
2	260557	47.31	0
2	261121	47.41	0
2	261685	47.51	0
2	262249	47.61	0
2	262813	47.71	0
2	263377	47.81	0
2	264034	47.91	0
2	264606	48.01	0
2	265169	48.11	0
2	265732	48.21	0
2	266295	48.31	0
2	266858	48.41	0
2	267421	48.51	0
2	267984	48.61	0
2	268547	48.71	0
2	269110	48.81	0
2	269673	48.91	0
2	270245	49.01	0
2	270808	49.11	0
2	271371	49.21	0
2	271934	49.31	0
2	272497	49.41	0
2	273060	49.51	0
2	273623	49.61	0
2	274186	49.71	0
2	274749	49.81	0
2	275312	49.91	0
2	275884	50.01	0
2	276447	50.11	0
2	277010	50.21	0
2	277573	50.31	0
2	278136	50.41	0
2	278699	50.51	0
2	279262	50.61	0
2	279825	50.71	0
2	280388	50.81	0
2	280951	50.91	0
2	281523	51.01	0
2	282086	51.11	0
2	282649	51.21	0
2	283212	51.31	0
2	283775	51.41	0
2	284338	51.51	0
2	284901	51.61	0
2	285464	51.71	0
2	286027	51.81	0
2	286590	51.91	0
2	287162	52.01	0
2	287725	52.11	0
2	288288	52.21	0
2	288851	52.31	0
2	289414	52.41	0
2	289977	52.51	0
2	290540	52.61	0
2	291103	52.71	0
2	291666	52.81	0
2	292229	52.91	0
2	292801	53.01	0
2	293364	53.11	0
2	293927	53.21	0
2	294490	53.31	0
2	295053	53.41	0
2	295616	53.51	0
2	296179	53.61	0
2	296742	53.71	0
2	297305	53.81	0
2	297868	53.91	0
2	298440	54.01	0
2	299003	54.11	0
2	299659	54.21	0
2	300221	54.31	0
2	300783	54.41	0
2	301345	54.51	0
2	301907	54.61	0
2	302469	54.71	0
2	303031	54.81	0
2	303593	54.91	0
2	304164	55.01	0
2	304726	55.11	0
2	305288	55.21	0
2	305850	55.31	0
2	306412	55.41	0
2	306974	55.51	0
2	307536	55.61	0
2	308098	55.71	0
2	308660	55.81	0
2	309222	55.91	0
2	309793	56.01	0
2	310355	56.11	0
2	310917	56.21	0
2	311479	56.31	0
2	312041	56.41	0
2	312603	56.51	0
2	313165	56.61	0
2	313727	56.71	0
2	314289	56.81	0
2	314851	56.91	0
2	315422	57.01	0
2	315984	57.11	0
2	316546	57.21	0
2	317108	57.31	0
2	317670	57.41	0
2	318232	57.51	0
2	318794	57.61	0
2	319356	57.71	0
2	319918	57.81	0
2	320480	57.91	0
2	321051	58.01	0
2	321613	58.11	0
2	322175	58.21	0
2	322737	58.31	0
2	323299	58.41	0
2	323861	58.51	0
2	324423	58.61	0
2	324985	58.71	0
2	325547	58.81	0
2	326109	58.91	0
2	326680	59.01	0
2	327242	59.11	0
2	327804	59.21	0
2	328366	59.31	0
2	328928	59.41	0
2	329490	59.51	0
2	330052	59.61	0
2	330614	59.71	0
2	331176	59.81	0
2	331831	59.91	0
2	332401	60.01	0
2	332962	60.11	0
2	333523	60.21	0
2	334084	60.31	0
2	334645	60.41	0
2	335206	60.51	0
2	335767	60.61	0
2	336328	60.71	0
2	336889	60.81	0
2	337450	60.91	0
2	338020	61.01	0
2	338581	61.11	0
2	339142	61.21	0
2	339703	61.31	0
2	340264	61.41	0
2	340825	61.51	0
2	341386	61.61	0
2	341947	61.71	0
2	342508	61.81	0
2	343069	61.91	0
2	343639	62.01	0
2	344200	62.11	0
2	344761	62.21	0
2	345322	62.31	0
2	345883	62.41	0
2	346444	62.51	0
2	347005	62.61	0
2	347566	62.71	0
2	348127	62.81	0
2	348688	62.91	0
2	349258	63.01	0
2	349819	63.11	0
2	350380	63.21	0
2	350941	63.31	0
2	351502	63.41	0
2	352063	63.51	0
2	352624	63.61	0
2	353185	63.71	0
2	353746	63.81	0
2	354307	63.91	0
2	354877	64.01	0
2	355438	64.11	0
2	355999	64.21	0
2	356560	64.31	0
2	357121	64.41	0
2	357682	64.51	0
2	358243	64.61	0
2	358804	64.71	0
2	359365	64.81	0
2	359926	64.91	0
2	360496	65.01	0
2	361150	65.11	0
2	361710	65.21	0
2	362270	65.31	0
2	362830	65.41	0
2	363390	65.51	0
2	363950	65.61	0
2	364510	65.71	0
2	365070	65.81	0
2	365630	65.91	0
2	366199	66.01	0
2	366759	66.11	0
2	367319	66.21	0
2	367879	66.31	0
2	368439	66.41	0
2	368999	66.51	0
2	369559	66.61	0
2	370119	66.71	0
2	370679	66.81	0
2	371239	66.91	0
2	371808	67.01	0
2	372368	67.11	0
2	372928	67.21	0
2	373488	67.31	0
2	374048	67.41	0
2	374608	67.51	0
2	375168	67.61	0
2	375728	67.71	0
2	376288	67.81	0
2	376848	67.91	0
2	377417	68.01	0
2	377977	68.11	0
2	378537	68.21	0
2	379097	68.31	0
2	379657	68.41	0
2	380217	68.51	0
2	380777	68.61	0
2	381337	68.71	0
2	381897	68.81	0
2	382457	68.91	0
2	383026	69.01	0
2	383586	69.11	0
2	384146	69.21	0
2	384706	69.31	0
2	385266	69.41	0
2	385826	69.51	0
2	386386	69.61	0
2	386946	69.71	0
2	387506	69.81	0
2	388066	69.91	0
2	388728	70.01	0
2	389287	70.11	0
2	389846	70.21	0
2	390405	70.31	0
2	390964	70.41	0
2	391523	70.51	0
2	392082	70.61	0
2	392641	70.71	0
2	393200	70.81	0
2	393759	70.91	0
2	394327	71.01	0
2	394886	71.11	0
2	395445	71.21	0
2	396004	71.31	0
2	396563	71.41	0
2	397122	71.51	0
2	397681	71.61	0
2	398240	71.71	0
2	398799	71.81	0
2	399358	71.91	0
2	399926	72.01	0
2	400485	72.11	0
2	401044	72.21	0
2	401603	72.31	0
2	402162	72.41	0
2	402721	72.51	0
2	403280	72.61	0
2	403839	72.71	0
2	404398	72.81	0
2	404957	72.91	0
2	405525	73.01	0
2	406084	73.11	0
2	406643	73.21	0
2	407202	73.31	0
2	407761	73.41	0
2	408320	73.51	0
2	408879	73.61	0
2	409438	73.71	0
2	409997	73.81	0
2	410556	73.91	0
2	411124	74.01	0
2	411683	74.11	0
2	412242	74.21	0
2	412801	74.31	0
2	413360	74.41	0
2	413919	74.51	0
2	414478	74.61	0
2	415130	74.71	0
2	415688	74.81	0
2	416246	74.91	0
2	416813	75.01	0
2	417371	75.11	0
2	417929	75.21	0
2	418487	75.31	0
2	419045	75.41	0
2	419603	75.51	0
2	420161	75.61	0
2	420719	75.71	0
2	421277	75.81	0
2	421835	75.91	0
2	422402	76.01	0
2	422960	76.11	0
2	423518	76.21	0
2	424076	76.31	0
2	424634	76.41	0
2	425192	76.51	0
2	425750	76.61	0
2	426308	76.71	0
2	426866	76.81	0
2	427424	76.91	0
2	427991	77.01	0
2	428549	77.11	0
2	429107	77.21	0
2	429665	77.31	0
2	430223	77.41	0
2	430781	77.51	0
2	431339	77.61	0
2	431897	77.71	0
2	432455	77.81	0
2	433013	77.91	0
2	433580	78.01	0
2	434138	78.11	0
2	434696	78.21	0
2	435254	78.31	0
2	435812	78.41	0
2	436370	78.51	0
2	436928	78.61	0
2	437486	78.71	0
2	438044	78.81	0
2	438602	78.91	0
2	439169	79.01	0
2	439727	79.11	0
2	440285	79.21	0
2	441610	79.31	0
2	442167	79.41	0
2	442724	79.51	0
2	443281	79.61	0
2	443838	79.71	0
2	444395	79.81	0
2	444952	79.91	0
2	445518	80.01	0
2	446075	80.11	0
2	446632	80.21	0
2	447189	80.31	0
2	447746	80.41	0
2	448303	80.51	0
2	448860	80.61	0
2	449417	80.71	0
2	449974	80.81	0
2	450531	80.91	0
2	451097	81.01	0
2	451654	81.11	0
2	452211	81.21	0
2	452768	81.31	0
2	453325	81.41	0
2	453882	81.51	0
2	454439	81.61	0
2	454996	81.71	0
2	455553	81.81	0
2	456110	81.91	0
2	456676	82.01	0
2	457233	82.11	0
2	457790	82.21	0
2	458347	82.31	0
2	458904	82.41	0
2	459461	82.51	0
2	460018	82.61	0
2	460575	82.71	0
2	461132	82.81	0
2	461689	82.91	0
2	462255	83.01	0
2	462812	83.11	0
2	463369	83.21	0
2	463926	83.31	0
2	464483	83.41	0
2	465040	83.51	0
2	465597	83.61	0
2	466154	83.71	0
2	466711	83.81	0
2	467268	83.91	0
2	467834	84.01	0
2	468391	84.11	0
2	468948	84.21	0
2	469505	84.31	0
2	470062	84.41	0
2	470619	84.51	0
2	471176	84.61	0
2	471733	84.71	0
2	472290	84.81	0
2	472847	84.91	0
2	473413	85.01	0
2	473970	85.11	0
2	474527	85.21	0
2	475084	85.31	0
2	475641	85.41	0
2	476198	85.51	0
2	476755	85.61	0
2	477312	85.71	0
2	477869	85.81	0
2	478426	85.91	0
2	478992	86.01	0
2	479549	86.11	0
2	480106	86.21	0
2	480663	86.31	0
2	481220	86.41	0
2	481777	86.51	0
2	482334	86.61	0
2	482891	86.71	0
2	483448	86.81	0
2	484005	86.91	0
2	484571	87.01	0
2	485128	87.11	0
2	485685	87.21	0
2	486242	87.31	0
2	486799	87.41	0
2	487356	87.51	0
2	487913	87.61	0
2	488470	87.71	0
2	489027	87.81	0
2	489584	87.91	0
2	490150	88.01	0
2	490707	88.11	0
2	491264	88.21	0
2	491821	88.31	0
2	492378	88.41	0
2	492935	88.51	0
2	493492	88.61	0
2	494049	88.71	0
2	494606	88.81	0
2	495163	88.91	0
2	495729	89.01	0
2	496286	89.11	0
2	496843	89.21	0
2	497400	89.31	0
2	497957	89.41	0
2	498514	89.51	0
2	499071	89.61	0
2	499628	89.71	0
2	500185	89.81	0
2	500742	89.91	0
2	501308	90.01	0
2	501865	90.11	0
2	502422	90.21	0
2	502979	90.31	0
2	503536	90.41	0
2	504093	90.51	0
2	504650	90.61	0
2	505207	90.71	0
2	505764	90.81	0
2	506321	90.91	0
2	506887	91.01	0
2	507444	91.11	0
2	508001	91.21	0
2	508558	91.31	0
2	509115	91.41	0
2	509672	91.51	0
2	510229	91.61	0
2	510786	91.71	0
2	511343	91.81	0
2	511900	91.91	0
2	512466	92.01	0
2	513023	92.11	0
2	513580	92.21	0
2	514137	92.31	0
2	514694	92.41	0
2	515251	92.51	0
2	515808	92.61	0
2	516365	92.71	0
2	516922	92.81	0
2	517479	92.91	0
2	518045	93.01	0
2	518602	93.11	0
2	519159	93.21	0
2	519716	93.31	0
2	520273	93.41	0
2	520830	93.51	0
2	521387	93.61	0
2	521944	93.71	0
2	522501	93.81	0
2	523058	93.91	0
2	523624	94.01	0
2	524181	94.11	0
2	524738	94.21	0
2	525295	94.31	0
2	525852	94.41	0
2	526409	94.51	0
2	526966	94.61	0
2	527523	94.71	0
2	528080	94.81	0
2	528637	94.91	0
2	529203	95.01	0
2	529760	95.11	0
2	530317	95.21	0
2	530874	95.31	0
2	531431	95.41	0
2	531988	95.51	0
2	532545	95.61	0
2	533102	95.71	0
2	533659	95.81	0
2	534216	95.91	0
2	534782	96.01	0
2	535339	96.11	0
2	535896	96.21	0
2	536453	96.31	0
2	537010	96.41	0
2	537567	96.51	0
2	538124	96.61	0
2	538681	96.71	0
2	539238	96.81	0
2	539795	96.91	0
2	540361	97.01	0
2	540918	97.11	0
2	541475	97.21	0
2	542032	97.31	0
2	542589	97.41	0
2	543146	97.51	0
2	543703	97.61	0
2	544260	97.71	0
2	544817	97.81	0
2	545374	97.91	0
2	545940	98.01	0
2	546497	98.11	0
2	547054	98.21	0
2	547611	98.31	0
2	548168	98.41	0
2	548725	98.51	0
2	549282	98.61	0
2	549839	98.71	0
2	550396	98.81	0
2	550953	98.91	0
2	551519	99.01	0
2	552076	99.11	0
2	552633	99.21	0
2	553190	99.31	0
2	553747	99.41	0
2	554304	99.51	0
2	554861	99.61	0
2	555418	99.71	0
2	555975	99.81	0
2	556532	99.91	0
3	113	1.11	0.000179096
3	670	1.21	0.000340852
3	1227	1.31	0.000467435
3	1784	1.41	0.000562893
3	2341	1.51	0.000631106
3	2898	1.61	0.000675745
3	3455	1.71	0.000700245
3	4012	1.81	0.000707784
3	4569	1.91	0.000701273
3	5135	2.01	0.000683354
3	5692	2.11	0.000656398
3	6249	2.21	0.000622512
3	6806	2.31	0.000583548
3	7363	2.41	0.000541117
3	7920	2.51	0.000496604
3	8477	2.61	0.000451181
3	9034	2.71	0.000405825
3	9591	2.81	0.00036134
3	10148	2.91	0.000318365
3	10714	3.01	0.0002774
3	11271	3.11	0.00023882
3	11828	3.21	0.000202887
3	12385	3.31	0.00016977
3	12942	3.41	0.000139558
3	13499	3.51	0.000112271
3	14056	3.61	8.78717e-05
3	14613	3.71	6.628e-05
3	15170	3.81	4.73785e-05
3	15727	3.91	3.1023e-05
3	16293	4.01	1.70493e-05
3	16850	4.11	5.28023e-06
3	17407	4.21	-4.46922e-06
3	17964	4.31	-1.2387e-05
3	18521	4.41	-1.86602e-05
3	19078	4.51	-2.34717e-05
3	19635	4.61	-2.69978e-05
3	20192	4.71	-2.94062e-05
3	20749	4.81	-3.08545e-05
3	21306	4.91	-3.14892e-05
3	21872	5.01	-3.14451e-05
3	22429	5.11	-3.0845e-05
3	22986	5.21	-2.97994e-05
3	23543	5.31	-2.84072e-05
3	24100	5.41	-2.67556e-05
3	24657	5.51	-2.49208e-05
3	25214	5.61	-2.29687e-05
3	25771	5.71	-2.09553e-05
3	26328	5.81	-1.89277e-05
3	26885	5.91	-1.6925e-05
3	27451	6.01	-1.49784e-05
3	28008	6.11	-1.31129e-05
3	28565	6.21	-1.13474e-05
3	29122	6.31	-9.69553e-06
3	29679	6.41	-8.16651e-06
3	30236	6.51	-6.76571e-06
3	30793	6.61	-5.49522e-06
3	31350	6.71	-4.35441e-06
3	31907	6.81	-3.34045e-06
3	32464	6.91	-2.44874e-06
3	33030	7.01	-1.6733e-06
3	33587	7.11	-1.00716e-06
3	34144	7.21	-4.42628e-07
3	34701	7.31	2.84224e-08
3	35258	7.41	4.14339e-07
3	35815	7.51	7.23492e-07
3	36372	7.61	9.6413e-07
3	36929	7.71	1.14424e-06
3	37486	7.81	1.27148e-06
3	38043	7.91	1.35305e-06
3	38609	8.01	1.3957e-06
3	39166	8.11	1.40565e-06
3	39723	8.21	1.3886e-06
3	40280	8.31	1.34971e-06
3	40837	8.41	1.2936e-06
3	41394	8.51	1.22437e-06
3	41951	8.61	1.14561e-06
3	42508	8.71	1.06046e-06
3	43065	8.81	9.71582e-07
3	43622	8.91	8.81246e-07
3	44188	9.01	7.91334e-07
3	44745	9.11	7.03381e-07
3	45302	9.21	6.18613e-07
3	45859	9.31	5.37979e-07
3	46416	9.41	4.62183e-07
3	46973	9.51	3.91714e-07
3	47530	9.61	3.26878e-07
3	48087	9.71	2.67827e-07
3	48644	9.81	2.14581e-07
3	49201	9.91	1.67052e-07
3	49852	10.01	1.25066e-07
3	50416	10.11	8.83794e-08
3	50980	10.21	5.66978e-08
3	51544	10.31	2.96922e-08
3	52108	10.41	7.00453e-09
3	52672	10.51	-1.17325e-08
3	53236	10.61	-2.68933e-08
3	53800	10.71	-3.88482e-08
3	54364	10.81	-4.79581e-08
3	54928	10.91	-5.45704e-08
3	55501	11.01	-5.90177e-08
3	56065	11.11	-6.16069e-08
3	56629	11.21	-6.26265e-08
3	57193	11.31	-6.23395e-08
3	57757	11.41	-6.09859e-08
3	58321	11.51	-5.87811e-08
3	58885	11.61	-5.59183e-08
3	59449	11.71	-5.25674e-08
3	60013	11.81	-4.88761e-08
3	60577	11.91	-4.4971e-08
3	61150	12.01	-4.09599e-08
3	61714	12.11	-3.69354e-08
3	62278	12.21	-3.29713e-08
3	62842	12.31	-2.9128e-08
3	63406	12.41	-2.54531e-08
3	63970	12.51	-2.19821e-08
3	64534	12.61	-1.87399e-08
3	65098	12.71	-1.57428e-08
3	65662	12.81	-1.30029e-08
3	66226	12.91	-1.05217e-08
3	66799	13.01	-8.29772e-09
3	67363	13.11	-6.32454e-09
3	67927	13.21	-4.59224e-09
3	68491	13.31	-3.08802e-09
3	69055	13.41	-1.79838e-09
3	69619	13.51	-7.08411e-10
3	70183	13.61	1.98241e-10
3	70747	13.71	9.37916e-10
3	71311	13.81	1.52767e-09
3	71875	13.91	1.98384e-09
3	72448	14.01	2.32276e-09
3	73012	14.11	2.55937e-09
3	73576	14.21	2.70788e-09
3	74140	14.31	2.78249e-09
3	74704	14.41	2.79243e-09
3	75268	14.51	2.7498e-09
3	75832	14.61	2.66525e-09
3	76396	14.71	2.54872e-09
3	76960	14.81	2.40803e-09
3	77524	14.91	2.24887e-09
3	78097	15.01	2.07763e-09
3	78661	15.11	1.89999e-09
3	79225	15.21	1.72236e-09
3	79789	15.31	1.54472e-09
3	80353	15.41	1.37064e-09
3	80917	15.51	1.20295e-09
3	81481	15.61	1.04379e-09
3	82045	15.71	8.94573e-10
3	82609	15.81	7.56017e-10
3	83173	15.91	6.29541e-10
3	83746	16.01	5.13012e-10
3	84310	16.11	4.09273e-10
3	84874	16.21	3.16902e-10
3	85438	16.31	2.3519e-10
3	86002	16.41	1.63425e-10
3	86566	16.51	1.02318e-10
3	87130	16.61	4.9738e-11
3	87694	16.71	5.68434e-12
3	88258	16.81	-3.05533e-11
3	88822	16.91	-5.8975e-11
3	89395	17.01	-8.10019e-11
3	89959	17.11	-9.80549e-11
3	90523	17.21	-1.11555e-10
3	91087	17.31	-1.18661e-10
3	91651	17.41	-1.23634e-10
3	92215	17.51	-1.23634e-10
3	92779	17.61	-1.23634e-10
3	93343	17.71	-1.21503e-10
3	93907	17.81	-1.14397e-10
3	94471	17.91	-1.07292e-10
3	95044	18.01	-1.00187e-10
3	95608	18.11	-9.30811e-11
3	96172	18.21	-8.59757e-11
3	96736	18.31	-7.88702e-11
3	97300	18.41	-7.17648e-11
3	97864	18.51	-6.46594e-11
3	98428	18.61	-5.7554e-11
3	98992	18.71	-5.04485e-11
3	99556	18.81	-4.33431e-11
3	100120	18.91	-3.62377e-11
3	100693	19.01	-2.91323e-11
3	101257	19.11	-2.20268e-11
3	101821	19.21	-1.7053e-11
3	102385	19.31	-1.49214e-11
3	102949	19.41	-1.35003e-11
3	103513	19.51	-1.27898e-11
3	104077	19.61	-1.13687e-11
3	104641	19.71	-9.9476e-12
3	105205	19.81	-9.23706e-12
3	105769	19.91	-8.52651e-12
3	106342	20.01	-7.81597e-12
3	106906	20.11	-7.10543e-12
3	107470	20.21	-6.39488e-12
3	108034	20.31	-5.68434e-12
3	108598	20.41	-4.9738e-12
3	109162	20.51	-4.26326e-12
3	109726	20.61	-4.26326e-12
3	110290	20.71	-3.55271e-12
3	110854	20.81	-3.55271e-12
3	111418	20.91	-2.84217e-12
3	111991	21.01	-2.84217e-12
3	112555	21.11	-2.84217e-12
3	113119	21.21	-2.13163e-12
3	113683	21.31	-2.13163e-12
3	114247	21.41	-2.13163e-12
3	114811	21.51	-1.42109e-12
3	115375	21.61	-1.42109e-12
3	115939	21.71	-1.42109e-12
3	116503	21.81	-1.42109e-12
3	117067	21.91	-1.42109e-12
3	117640	22.01	-7.10543e-13
3	118204	22.11	-7.10543e-13
3	118768	22.21	-7.10543e-13
3	119332	22.31	-7.10543e-13
3	119896	22.41	-7.10543e-13
3	120460	22.51	-7.10543e-13
3	121024	22.61	-7.10543e-13
3	121588	22.71	-7.10543e-13
3	122152	22.81	-7.10543e-13
3	122716	22.91	-7.10543e-13
3	123289	23.01	0
3	123853	23.11	0
3	124417	23.21	0
3	124981	23.31	0
3	125545	23.41	0
3	126109	23.51	0
3	126673	23.61	0
3	127237	23.71	0
3	127801	23.81	0
3	128365	23.91	0
3	128938	24.01	0
3	129502	24.11	0
3	130066	24.21	0
3	130630	24.31	0
3	131194	24.41	0
3	131758	24.51	0
3	132322	24.61	0
3	132886	24.71	0
3	133450	24.81	0
3	134014	24.91	0
3	134587	25.01	0
3	135151	25.11	0
3	135715	25.21	0
3	136279	25.31	0
3	136843	25.41	0
3	137407	25.51	0
3	137971	25.61	0
3	138535	25.71	0
3	139099	25.81	0
3	139663	25.91	0
3	140236	26.01	0
3	140800	26.11	0
3	141364	26.21	0
3	141928	26.31	0
3	142492	26.41	0
3	143056	26.51	0
3	143620	26.61	0
3	144184	26.71	0
3	144748	26.81	0
3	145312	26.91	0
3	145885	27.01	0
3	146449	27.11	0
3	147013	27.21	0
3	147577	27.31	0
3	148141	27.41	0
3	148705	27.51	0
3	149269	27.61	0
3	149833	27.71	0
3	150397	27.81	0
3	150961	27.91	0
3	151534	28.01	0
3	152098	28.11	0
3	152662	28.21	0
3	153226	28.31	0
3	153790	28.41	0
3	154354	28.51	0
3	154918	28.61	0
3	155482	28.71	0
3	156046	28.81	0
3	156610	28.91	0
3	157183	29.01	0
3	157747	29.11	0
3	158311	29.21	0
3	158875	29.31	0
3	159439	29.41	0
3	160003	29.51	0
3	160567	29.61	0
3	161131	29.71	0
3	161695	29.81	0
3	162259	29.91	0
3	162832	30.01	0
3	163396	30.11	0
3	163960	30.21	0
3	164524	30.31	0
3	165088	30.41	0
3	165652	30.51	0
3	166216	30.61	0
3	166780	30.71	0
3	167344	30.81	0
3	167908	30.91	0
3	168481	31.01	0
3	169045	31.11	0
3	169609	31.21	0
3	170173	31.31	0
3	170737	31.41	0
3	171301	31.51	0
3	171865	31.61	0
3	172429	31.71	0
3	172993	31.81	0
3	173557	31.91	0
3	174130	32.01	0
3	174694	32.11	0
3	175258	32.21	0
3	175822	32.31	0
3	176386	32.41	0
3	176950	32.51	0
3	177514	32.61	0
3	178078	32.71	0
3	178642	32.81	0
3	179206	32.91	0
3	179779	33.01	0
3	180343	33.11	0
3	180907	33.21	0
3	181471	33.31	0
3	182035	33.41	0
3	182599	33.51	0
3	183163	33.61	0
3	183727	33.71	0
3	184291	33.81	0
3	184855	33.91	0
3	185428	34.01	0
3	185992	34.11	0
3	186556	34.21	0
3	187120	34.31	0
3	187684	34.41	0
3	188248	34.51	0
3	188812	34.61	0
3	189376	34.71	0
3	189940	34.81	0
3	190504	34.91	0
3	191077	35.01	0
3	191641	35.11	0
3	192205	35.21	0
3	192769	35.31	0
3	193333	35.41	0
3	193897	35.51	0
3	194461	35.61	0
3	195025	35.71	0
3	195589	35.81	0
3	196153	35.91	0
3	196726	36.01	0
3	197290	36.11	0
3	197854	36.21	0
3	198418	36.31	0
3	198982	36.41	0
3	199546	36.51	0
3	200110	36.61	0
3	200674	36.71	0
3	201238	36.81	0
3	201802	36.91	0
3	202375	37.01	0
3	202939	37.11	0
3	203503	37.21	0
3	204067	37.31	0
3	204631	37.41	0
3	205195	37.51	0
3	205759	37.61	0
3	206323	37.71	0
3	206887	37.81	0
3	207451	37.91	0
3	208024	38.01	0
3	208588	38.11	0
3	209152	38.21	0
3	209716	38.31	0
3	210280	38.41	0
3	210844	38.51	0
3	211408	38.61	0
3	211972	38.71	0
3	212536	38.81	0
3	213100	38.91	0
3	213673	39.01	0
3	214237	39.11	0
3	214801	39.21	0
3	215365	39.31	0
3	215929	39.41	0
3	216493	39.51	0
3	217057	39.61	0
3	217621	39.71	0
3	218185	39.81	0
3	218749	39.91	0
3	219322	40.01	0
3	219886	40.11	0
3	220450	40.21	0
3	221014	40.31	0
3	221578	40.41	0
3	222142	40.51	0
3	222706	40.61	0
3	223270	40.71	0
3	223834	40.81	0
3	224398	40.91	0
3	224971	41.01	0
3	225535	41.11	0
3	226099	41.21	0
3	226663	41.31	0
3	227227	41.41	0
3	227791	41.51	0
3	228355	41.61	0
3	228919	41.71	0
3	229483	41.81	0
3	230047	41.91	0
3	230620	42.01	0
3	231184	42.11	0
3	231748	42.21	0
3	232312	42.31	0
3	232876	42.41	0
3	233440	42.51	0
3	234004	42.61	0
3	234568	42.71	0
3	235132	42.81	0
3	235696	42.91	0
3	236269	43.01	0
3	236833	43.11	0
3	237397	43.21	0
3	237961	43.31	0
3	238525	43.41	0
3	239089	43.51	0
3	239653	43.61	0
3	240217	43.71	0
3	240781	43.81	0
3	241345	43.91	0
3	241918	44.01	0
3	242482	44.11	0
3	243046	44.21	0
3	243610	44.31	0
3	244174	44.41	0
3	244738	44.51	0
3	245302	44.61	0
3	245866	44.71	0
3	246430	44.81	0
3	246994	44.91	0
3	247567	45.01	0
3	248131	45.11	0
3	248695	45.21	0
3	249259	45.31	0
3	249823	45.41	0
3	250387	45.51	0
3	250951	45.61	0
3	251515	45.71	0
3	252079	45.81	0
3	252643	45.91	0
3	253216	46.01	0
3	253780	46.11	0
3	254344	46.21	0
3	254908	46.31	0
3	255472	46.41	0
3	256036	46.51	0
3	256600	46.61	0
3	257164	46.71	0
3	257728	46.81	0
3	258292	46.91	0
3	258865	47.01	0
3	259429	47.11	0
3	259993	47.21	0
3	260557	47.31	0
3	261121	47.41	0
3	261685	47.51	0
3	262249	47.61	0
3	262813	47.71	0
3	263377	47.81	0
3	264034	47.91	0
3	264606	48.01	0
3	265169	48.11	0
3	265732	48.21	0
3	266295	48.31	0
3	266858	48.41	0
3	267421	48.51	0
3	267984	48.61	0
3	268547	48.71	0
3	269110	48.81	0
3	269673	48.91	0
3	270245	49.01	0
3	270808	49.11	0
3	271371	49.21	0
3	271934	49.31	0
3	272497	49.41	0
3	273060	49.51	0
3	273623	49.61	0
3	274186	49.71	0
3	274749	49.81	0
3	275312	49.91	0
3	275884	50.01	0
3	276447	50.11	0
3	277010	50.21	0
3	277573	50.31	0
3	278136	50.41	0
3	278699	50.51	0
3	279262	50.61	0
3	279825	50.71	0
3	280388	50.81	0
3	280951	50.91	0
3	281523	51.01	0
3	282086	51.11	0
3	282649	51.21	0
3	283212	51.31	0
3	283775	51.41	0
3	284338	51.51	0
3	284901	51.61	0
3	285464	51.71	0
3	286027	51.81	0
3	286590	51.91	0
3	287162	52.01	0
3	287725	52.11	0
3	288288	52.21	0
3	288851	52.31	0
3	289414	52.41	0
3	289977	52.51	0
3	290540	52.61	0
3	291103	52.71	0
3	291666	52.81	0
3	292229	52.91	0
3	292801	53.01	0
3	293364	53.11	0
3	293927	53.21	0
3	294490	53.31	0
3	295053	53.41	0
3	295616	53.51	0
3	296179	53.61	0
3	296742	53.71	0
3	297305	53.81	0
3	297868	53.91	0
3	298440	54.01	0
3	299003	54.11	0
3	299659	54.21	0
3	300221	54.31	0
3	300783	54.41	0
3	301345	54.51	0
3	301907	54.61	0
3	302469	54.71	0
3	303031	54.81	0
3	303593	54.91	0
3	304164	55.01	0
3	304726	55.11	0
3	305288	55.21	0
3	305850	55.31	0
3	306412	55.41	0
3	306974	55.51	0
3	307536	55.61	0
3	308098	55.71	0
3	308660	55.81	0
3	309222	55.91	0
3	309793	56.01	0
3	310355	56.11	0
3	310917	56.21	0
3	311479	56.31	0
3	312041	56.41	0
3	312603	56.51	0
3	313165	56.61	0
3	313727	56.71	0
3	314289	56.81	0
3	314851	56.91	0
3	315422	57.01	0
3	315984	57.11	0
3	316546	57.21	0
3	317108	57.31	0
3	317670	57.41	0
3	318232	57.51	0
3	318794	57.61	0
3	319356	57.71	0
3	319918	57.81	0
3	320480	57.91	0
3	321051	58.01	0
3	321613	58.11	0
3	322175	58.21	0
3	322737	58.31	0
3	323299	58.41	0
3	323861	58.51	0
3	324423	58.61	0
3	324985	58.71	0
3	325547	58.81	0
3	326109	58.91	0
3	326680	59.01	0
3	327242	59.11	0
3	327804	59.21	0
3	328366	59.31	0
3	328928	59.41	0
3	329490	59.51	0
3	330052	59.61	0
3	330614	59.71	0
3	331176	59.81	0
3	331831	59.91	0
3	332401	60.01	0
3	332962	60.11	0
3	333523	60.21	0
3	334084	60.31	0
3	334645	60.41	0
3	335206	60.51	0
3	335767	60.61	0
3	336328	60.71	0
3	336889	60.81	0
3	337450	60.91	0
3	338020	61.01	0
3	338581	61.11	0
3	339142	61.21	0
3	339703	61.31	0
3	340264	61.41	0
3	340825	61.51	0
3	341386	61.61	0
3	341947	61.71	0
3	342508	61.81	0
3	343069	61.91	0
3	343639	62.01	0
3	344200	62.11	0
3	344761	62.21	0
3	345322	62.31	0
3	345883	62.41	0
3	346444	62.51	0
3	347005	62.61	0
3	347566	62.71	0
3	348127	62.81	0
3	348688	62.91	0
3	349258	63.01	0
3	349819	63.11	0
3	350380	63.21	0
3	350941	63.31	0
3	351502	63.41	0
3	352063	63.51	0
3	352624	63.61	0
3	353185	63.71	0
3	353746	63.81	0
3	354307	63.91	0
3	354877	64.01	0
3	355438	64.11	0
3	355999	64.21	0
3	356560	64.31	0
3	357121	64.41	0
3	357682	64.51	0
3	358243	64.61	0
3	358804	64.71	0
3	359365	64.81	0
3	359926	64.91	0
3	360496	65.01	0
3	361150	65.11	0
3	361710	65.21	0
3	362270	65.31	0
3	362830	65.41	0
3	363390	65.51	0
3	363950	65.61	0
3	364510	65.71	0
3	365070	65.81	0
3	365630	65.91	0
3	366199	66.01	0
3	366759	66.11	0
3	367319	66.21	0
3	367879	66.31	0
3	368439	66.41	0
3	368999	66.51	0
3	369559	66.61	0
3	370119	66.71	0
3	370679	66.81	0
3	371239	66.91	0
3	371808	67.01	0
3	372368	67.11	0
3	372928	67.21	0
3	373488	67.31	0
3	374048	67.41	0
3	374608	67.51	0
3	375168	67.61	0
3	375728	67.71	0
3	376288	67.81	0
3	376848	67.91	0
3	377417	68.01	0
3	377977	68.11	0
3	378537	68.21	0
3	379097	68.31	0
3	379657	68.41	0
3	380217	68.51	0
3	380777	68.61	0
3	381337	68.71	0
3	381897	68.81	0
3	382457	68.91	0
3	383026	69.01	0
3	383586	69.11	0
3	384146	69.21	0
3	384706	69.31	0
3	385266	69.41	0
3	385826	69.51	0
3	386386	69.61	0
3	386946	69.71	0
3	387506	69.81	0
3	388066	69.91	0
3	388728	70.01	0
3	389287	70.11	0
3	389846	70.21	0
3	390405	70.31	0
3	390964	70.41	0
3	391523	70.51	0
3	392082	70.61	0
3	392641	70.71	0
3	393200	70.81	0
3	393759	70.91	0
3	394327	71.01	0
3	394886	71.11	0
3	395445	71.21	0
3	396004	71.31	0
3	396563	71.41	0
3	397122	71.51	0
3	397681	71.61	0
3	398240	71.71	0
3	398799	71.81	0
3	399358	71.91	0
3	399926	72.01	0
3	400485	72.11	0
3	401044	72.21	0
3	401603	72.31	0
3	402162	72.41	0
3	402721	72.51	0
3	403280	72.61	0
3	403839	72.71	0
3	404398	72.81	0
3	404957	72.91	0
3	405525	73.01	0
3	406084	73.11	0
3	406643	73.21	0
3	407202	73.31	0
3	407761	73.41	0
3	408320	73.51	0
3	408879	73.61	0
3	409438	73.71	0
3	409997	73.81	0
3	410556	73.91	0
3	411124	74.01	0
3	411683	74.11	0
3	412242	74.21	0
3	412801	74.31	0
3	413360	74.41	0
3	413919	74.51	0
3	414478	74.61	0
3	415130	74.71	0
3	415688	74.81	0
3	416246	74.91	0
3	416813	75.01	0
3	417371	75.11	0
3	417929	75.21	0
3	418487	75.31	0
3	419045	75.41	0
3	419603	75.51	0
3	420161	75.61	0
3	420719	75.71	0
3	421277	75.81	0
3	421835	75.91	0
3	422402	76.01	0
3	422960	76.11	0
3	423518	76.21	0
3	424076	76.31	0
3	424634	76.41	0
3	425192	76.51	0
3	425750	76.61	0
3	426308	76.71	0
3	426866	76.81	0
3	427424	76.91	0
3	427991	77.01	0
3	428549	77.11	0
3	429107	77.21	0
3	429665	77.31	0
3	430223	77.41	0
3	430781	77.51	0
3	431339	77.61	0
3	431897	77.71	0
3	432455	77.81	0
3	433013	77.91	0
3	433580	78.01	0
3	434138	78.11	0
3	434696	78.21	0
3	435254	78.31	0
3	435812	78.41	0
3	436370	78.51	0
3	436928	78.61	0
3	437486	78.71	0
3	438044	78.81	0
3	438602	78.91	0
3	439169	79.01	0
3	439727	79.11	0
3	440285	79.21	0
3	441610	79.31	0
3	442167	79.41	0
3	442724	79.51	0
3	443281	79.61	0
3	443838	79.71	0
3	444395	79.81	0
3	444952	79.91	0
3	445518	80.01	0
3	446075	80.11	0
3	446632	80.21	0
3	447189	80.31	0
3	447746	80.41	0
3	448303	80.51	0
3	448860	80.61	0
3	449417	80.71	0
3	449974	80.81	0
3	450531	80.91	0
3	451097	81.01	0
3	451654	81.11	0
3	452211	81.21	0
3	452768	81.31	0
3	453325	81.41	0
3	453882	81.51	0
3	454439	81.61	0
3	454996	81.71	0
3	455553	81.81	0
3	456110	81.91	0
3	456676	82.01	0
3	457233	82.11	0
3	457790	82.21	0
3	458347	82.31	0
3	458904	82.41	0
3	459461	82.51	0
3	460018	82.61	0
3	460575	82.71	0
3	461132	82.81	0
3	461689	82.91	0
3	462255	83.01	0
3	462812	83.11	0
3	463369	83.21	0
3	463926	83.31	0
3	464483	83.41	0
3	465040	83.51	0
3	465597	83.61	0
3	466154	83.71	0
3	466711	83.81	0
3	467268	83.91	0
3	467834	84.01	0
3	468391	84.11	0
3	468948	84.21	0
3	469505	84.31	0
3	470062	84.41	0
3	470619	84.51	0
3	471176	84.61	0
3	471733	84.71	0
3	472290	84.81	0
3	472847	84.91	0
3	473413	85.01	0
3	473970	85.11	0
3	474527	85.21	0
3	475084	85.31	0
3	475641	85.41	0
3	476198	85.51	0
3	476755	85.61	0
3	477312	85.71	0
3	477869	85.81	0
3	478426	85.91	0
3	478992	86.01	0
3	479549	86.11	0
3	480106	86.21	0
3	480663	86.31	0
3	481220	86.41	0
3	481777	86.51	0
3	482334	86.61	0
3	482891	86.71	0
3	483448	86.81	0
3	484005	86.91	0
3	484571	87.01	0
3	485128	87.11	0
3	485685	87.21	0
3	486242	87.31	0
3	486799	87.41	0
3	487356	87.51	0
3	487913	87.61	0
3	488470	87.71	0
3	489027	87.81	0
3	489584	87.91	0
3	490150	88.01	0
3	490707	88.11	0
3	491264	88.21	0
3	491821	88.31	0
3	492378	88.41	0
3	492935	88.51	0
3	493492	88.61	0
3	494049	88.71	0
3	494606	88.81	0
3	495163	88.91	0
3	495729	89.01	0
3	496286	89.11	0
3	496843	89.21	0
3	497400	89.31	0
3	497957	89.41	0
3	498514	89.51	0
3	499071	89.61	0
3	499628	89.71	0
3	500185	89.81	0
3	500742	89.91	0
3	501308	90.01	0
3	501865	90.11	0
3	502422	90.21	0
3	502979	90.31	0
3	503536	90.41	0
3	504093	90.51	0
3	504650	90.61	0
3	505207	90.71	0
3	505764	90.81	0
3	506321	90.91	0
3	506887	91.01	0
3	507444	91.11	0
3	508001	91.21	0
3	508558	91.31	0
3	509115	91.41	0
3	509672	91.51	0
3	510229	91.61	0
3	510786	91.71	0
3	511343	91.81	0
3	511900	91.91	0
3	512466	92.01	0
3	513023	92.11	0
3	513580	92.21	0
3	514137	92.31	0
3	514694	92.41	0
3	515251	92.51	0
3	515808	92.61	0
3	516365	92.71	0
3	516922	92.81	0
3	517479	92.91	0
3	518045	93.01	0
3	518602	93.11	0
[...]
116	315171	57	0.024975483241
116	320800	58	0.024962450879
116	326429	59	0.024975421931
116	332151	60	0.025078916779
116	337770	61	0.024975372922
116	343389	62	0.024962352267
116	349008	63	0.024975333827
116	354627	64	0.024975317378
116	360246	65	0.024962302712
116	365950	66	0.025078650371
116	371559	67	0.024975277994
116	377168	68	0.024975267618
116	382777	69	0.02496225839
116	388386	70	0.024975250171
116	394079	71	0.02511224287
116	399678	72	0.024975236369
116	405277	73	0.024962230602
116	410876	74	0.024975225466
116	416566	75	0.025078901369
116	422155	76	0.024975216871
116	427744	77	0.024962213281
116	433333	78	0.0249752101
116	438922	79	0.024975207282
116	445272	80	0.025886235436
116	450851	81	0.02497524325
116	456430	82	0.024975383549
116	462009	83	0.024962482375
116	467588	84	0.024975569538
116	473167	85	0.024962744954
116	478746	86	0.024976085023
116	484325	87	0.024963493215
116	489904	88	0.024976862725
116	495483	89	0.024964151547
116	501062	90	0.024977369298
116	506641	91	0.024964545508
116	512220	92	0.024977705433
116	517799	93	0.024964867694
116	523378	94	0.024965027257
116	528957	95	0.024978155286
116	534536	96	0.024965252184
116	540115	97	0.024965329668
116	545694	98	0.024978388965
116	551273	99	0.024965413553
116	556852	100	0.024965361108
117	4889	2	0
117	10468	3	0
117	16047	4	0
117	21626	5	0
117	27205	6	0
117	32784	7	0
117	38363	8	0
117	43942	9	0
117	49523	10	0
117	55248	11	0
117	60897	12	0
117	66546	13	0
117	72195	14	0
117	77844	15	0
117	83493	16	0
117	89142	17	0
117	94791	18	0
117	100440	19	0
117	106089	20	0
117	111738	21	0
117	117387	22	0
117	123036	23	0
117	128685	24	0
117	134334	25	0
117	139983	26	0
117	145632	27	0
117	151281	28	0
117	156930	29	0
117	162579	30	0
117	168228	31	0
117	173877	32	0
117	179526	33	0
117	185175	34	0
117	190824	35	0
117	196473	36	0
117	202122	37	0
117	207771	38	0
117	213420	39	0
117	219069	40	0
117	224718	41	0
117	230367	42	0
117	236016	43	0
117	241665	44	0
117	247314	45	0
117	252963	46	0
117	258612	47	0
117	264354	48	0
117	269993	49	0
117	275632	50	0
117	281271	51	0
117	286910	52	0
117	292549	53	0
117	298188	54	0
117	303913	55	0
117	309542	56	0
117	315171	57	0
117	320800	58	0
117	326429	59	0
117	332151	60	0
117	337770	61	0
117	343389	62	0
117	349008	63	0
117	354627	64	0
117	360246	65	0
117	365950	66	0
117	371559	67	0
117	377168	68	0
117	382777	69	0
117	388386	70	0
117	394079	71	0
117	399678	72	0
117	405277	73	0
117	410876	74	0
117	416566	75	0
117	422155	76	0
117	427744	77	0
117	433333	78	0
117	438922	79	0
117	445272	80	0
117	450851	81	0
117	456430	82	0
117	462009	83	0
117	467588	84	0
117	473167	85	0
117	478746	86	0
117	484325	87	0
117	489904	88	0
117	495483	89	0
117	501062	90	0
117	506641	91	0
117	512220	92	0
117	517799	93	0
117	523378	94	0
117	528957	95	0
117	534536	96	0
117	540115	97	0
117	545694	98	0
117	551273	99	0
117	556852	100	0
118	4890	2	6
118	10469	3	6
118	16048	4	6
118	21627	5	6
118	27206	6	6
118	32785	7	6
118	38364	8	6
118	43943	9	6
118	49524	10	6
118	55249	11	6
118	60898	12	6
118	66547	13	6
118	72196	14	6
118	77845	15	6
118	83494	16	6
118	89143	17	6
118	94792	18	6
118	100441	19	6
118	106090	20	6
118	111739	21	6
118	117388	22	6
118	123037	23	6
118	128686	24	6
118	134335	25	6
118	139984	26	6
118	145633	27	6
118	151282	28	6
118	156931	29	6
118	162580	30	6
118	168229	31	6
118	173878	32	6
118	179527	33	6
118	185176	34	6
118	190825	35	6
118	196474	36	6
118	202123	37	6
118	207772	38	6
118	213421	39	6
118	219070	40	6
118	224719	41	6
118	230368	42	6
118	236017	43	6
118	241666	44	6
118	247315	45	6
118	252964	46	6
118	258613	47	6
118	264355	48	6
118	269994	49	6
118	275633	50	6
118	281272	51	6
118	286911	52	6
118	292550	53	6
118	298189	54	6
118	303914	55	6
118	309543	56	6
118	315172	57	6
118	320801	58	6
118	326430	59	6
118	332152	60	6
118	337771	61	6
118	343390	62	6
118	349009	63	6
118	354628	64	6
118	360247	65	6
118	365951	66	6
118	371560	67	6
118	377169	68	6
118	382778	69	6
118	388387	70	6
118	394080	71	6
118	399679	72	6
118	405278	73	6
118	410877	74	6
118	416567	75	6
118	422156	76	6
118	427745	77	6
118	433334	78	6
118	438923	79	6
118	445273	80	6
118	450852	81	6
118	456431	82	6
118	462010	83	6
118	467589	84	6
118	473168	85	6
118	478747	86	6
118	484326	87	6
118	489905	88	6
118	495484	89	6
118	501063	90	6
118	506642	91	6
118	512221	92	6
118	517800	93	6
118	523379	94	6
118	528958	95	6
118	534537	96	6
118	540116	97	6
118	545695	98	6
118	551274	99	6
118	556853	100	6
119	4890	2	0.021463516893
119	10469	3	0.024964796364
119	16048	4	0.02497779636
119	21627	5	0.024964796355
119	27206	6	0.024977796343
119	32785	7	0.02496479634
119	38364	8	0.02496479634
119	43943	9	0.02497779634
119	49524	10	0.02496479634
119	55249	11	0.025022750551
119	60898	12	0.024964713507
119	66547	13	0.024977503034
119	72196	14	0.024964161751
119	77845	15	0.024976709396
119	83494	16	0.02496316797
119	89143	17	0.024975558564
119	94792	18	0.024961900463
119	100441	19	0.024974210732
119	106090	20	0.024973504129
119	111739	21	0.024972793088
119	117388	22	0.024959087891
119	123037	23	0.024971396788
119	128686	24	0.024970726275
119	134335	25	0.02497008127
119	139984	26	0.024969465331
119	145633	27	0.024968880881
119	151282	28	0.024968329399
119	156931	29	0.024980811568
119	162580	30	0.02496732745
119	168229	31	0.024966876602
119	173878	32	0.024966458193
119	179527	33	0.024979071118
119	185176	34	0.024965714025
119	190825	35	0.024965385459
119	196474	36	0.024978083841
119	202123	37	0.024964807558
119	207772	38	0.024977554982
119	213421	39	0.024964324494
119	219070	40	0.024964114524
119	224719	41	0.024976923537
119	230368	42	0.02496375007
119	236017	43	0.024976592734
119	241666	44	0.024963450206
119	247315	45	0.024976321246
119	252964	46	0.024963204689
119	258613	47	0.024976099459
119	264355	48	0.025079845098
119	269994	49	0.024975919021
119	275633	50	0.024962842023
119	281272	51	0.024975772757
119	286911	52	0.024962710502
119	292550	53	0.024975654586
119	298189	54	0.024962604416
119	303914	55	0.025092240107
119	309543	56	0.024962519083
119	315172	57	0.024975482958
119	320801	58	0.024962450623
119	326430	59	0.024975421701
119	332152	60	0.025078916571
119	337771	61	0.024975372735
119	343390	62	0.024962352098
119	349009	63	0.024975333676
119	354628	64	0.024975317242
119	360247	65	0.024962302589
119	365951	66	0.025078650262
119	371560	67	0.024975277895
119	377169	68	0.02497526753
119	382778	69	0.024962258311
119	388387	70	0.0249752501
119	394080	71	0.025078443527
119	399679	72	0.024975236313
119	405278	73	0.024962230551
119	410877	74	0.024975225421
119	416567	75	0.025112860631
119	422156	76	0.024975216835
119	427745	77	0.02496221325
119	433334	78	0.024975210071
119	438923	79	0.024975207257
119	445273	80	0.0258862343
119	450852	81	0.02497523989
119	456431	82	0.024975376818
119	462010	83	0.024962470315
119	467589	84	0.024975560624
119	473168	85	0.024962731968
119	478747	86	0.024976069233
119	484326	87	0.024963476674
119	489905	88	0.02497684622
119	495484	89	0.024964135119
119	501063	90	0.024977352864
119	506642	91	0.024964529037
119	512221	92	0.024977688927
119	517800	93	0.024964851164
119	523379	94	0.024965010709
119	528958	95	0.024978138724
119	534537	96	0.024965235608
119	540116	97	0.024965313083
119	545695	98	0.02497837237
119	551274	99	0.02496539695
119	556853	100	0.024965344499
120	4890	2	0
120	10469	3	0
120	16048	4	0
120	21627	5	0
120	27206	6	0
120	32785	7	0
120	38364	8	0
120	43943	9	0
120	49524	10	0
120	55249	11	0
120	60898	12	0
120	66547	13	0
120	72196	14	0
120	77845	15	0
120	83494	16	0
120	89143	17	0
120	94792	18	0
120	100441	19	0
120	106090	20	0
120	111739	21	0
120	117388	22	0
120	123037	23	0
120	128686	24	0
120	134335	25	0
120	139984	26	0
120	145633	27	0
120	151282	28	0
120	156931	29	0
120	162580	30	0
120	168229	31	0
120	173878	32	0
120	179527	33	0
120	185176	34	0
120	190825	35	0
120	196474	36	0
120	202123	37	0
120	207772	38	0
120	213421	39	0
120	219070	40	0
120	224719	41	0
120	230368	42	0
120	236017	43	0
120	241666	44	0
120	247315	45	0
120	252964	46	0
120	258613	47	0
120	264355	48	0
120	269994	49	0
120	275633	50	0
120	281272	51	0
120	286911	52	0
120	292550	53	0
120	298189	54	0
120	303914	55	0
120	309543	56	0
120	315172	57	0
120	320801	58	0
120	326430	59	0
120	332152	60	0
120	337771	61	0
120	343390	62	0
120	349009	63	0
120	354628	64	0
120	360247	65	0
120	365951	66	0
120	371560	67	0
120	377169	68	0
120	382778	69	0
120	388387	70	0
120	394080	71	0
120	399679	72	0
120	405278	73	0
120	410877	74	0
120	416567	75	0
120	422156	76	0
120	427745	77	0
120	433334	78	0
120	438923	79	0
120	445273	80	0
120	450852	81	0
120	456431	82	0
120	462010	83	0
120	467589	84	0
120	473168	85	0
120	478747	86	0
120	484326	87	0
120	489905	88	0
120	495484	89	0
120	501063	90	0
120	506642	91	0
120	512221	92	0
120	517800	93	0
120	523379	94	0
120	528958	95	0
120	534537	96	0
120	540116	97	0
120	545695	98	0
120	551274	99	0
120	556853	100	0
121	4891	2	7
121	10470	3	7
121	16049	4	7
121	21628	5	7
121	27207	6	7
121	32786	7	7
121	38365	8	7
121	43944	9	7
121	49525	10	7
121	55250	11	7
121	60899	12	7
121	66548	13	7
121	72197	14	7
121	77846	15	7
121	83495	16	7
121	89144	17	7
121	94793	18	7
121	100442	19	7
121	106091	20	7
121	111740	21	7
121	117389	22	7
121	123038	23	7
121	128687	24	7
121	134336	25	7
121	139985	26	7
121	145634	27	7
121	151283	28	7
121	156932	29	7
121	162581	30	7
121	168230	31	7
121	173879	32	7
121	179528	33	7
121	185177	34	7
121	190826	35	7
121	196475	36	7
121	202124	37	7
121	207773	38	7
121	213422	39	7
121	219071	40	7
121	224720	41	7
121	230369	42	7
121	236018	43	7
121	241667	44	7
121	247316	45	7
121	252965	46	7
121	258614	47	7
121	264356	48	7
121	269995	49	7
121	275634	50	7
121	281273	51	7
121	286912	52	7
121	292551	53	7
121	298190	54	7
121	303915	55	7
121	309544	56	7
121	315173	57	7
121	320802	58	7
121	326431	59	7
121	332153	60	7
121	337772	61	7
121	343391	62	7
121	349010	63	7
121	354629	64	7
121	360248	65	7
121	365952	66	7
121	371561	67	7
121	377170	68	7
121	382779	69	7
121	388388	70	7
121	394081	71	7
121	399680	72	7
121	405279	73	7
121	410878	74	7
121	416568	75	7
121	422157	76	7
121	427746	77	7
121	433335	78	7
121	438924	79	7
121	445274	80	7
121	450853	81	7
121	456432	82	7
121	462011	83	7
121	467590	84	7
121	473169	85	7
121	478748	86	7
121	484327	87	7
121	489906	88	7
121	495485	89	7
121	501064	90	7
121	506643	91	7
121	512222	92	7
121	517801	93	7
121	523380	94	7
121	528959	95	7
121	534538	96	7
121	540117	97	7
121	545696	98	7
121	551275	99	7
121	556854	100	7
122	4891	2	0.021463496879
122	10470	3	0.024964796364
122	16049	4	0.02497779636
122	21628	5	0.024964796355
122	27207	6	0.024977796343
122	32786	7	0.02496479634
122	38365	8	0.02496479634
122	43944	9	0.02497779634
122	49525	10	0.02496479634
122	55250	11	0.025022750535
122	60899	12	0.024964713458
122	66548	13	0.024977502928
122	72197	14	0.024964161549
122	77846	15	0.024976709065
122	83495	16	0.024963167479
122	89144	17	0.024975557893
122	94793	18	0.0249618996
122	100442	19	0.024974209676
122	106091	20	0.024973502883
122	111740	21	0.024972791664
122	117389	22	0.024959086303
122	123038	23	0.024971395056
122	128687	24	0.02497072442
122	134336	25	0.024970079315
122	139985	26	0.0249694633
122	145634	27	0.024968878795
122	151283	28	0.02496832728
122	156932	29	0.024980809438
122	162581	30	0.024967325327
122	168230	31	0.024966874502
122	173879	32	0.024966456129
122	179528	33	0.024979069105
122	185177	34	0.024965712071
122	190826	35	0.024965383573
122	196475	36	0.024978082031
122	202124	37	0.024964805828
122	207773	38	0.024977553334
122	213422	39	0.024964322932
122	219071	40	0.024964113047
122	224720	41	0.024976922145
122	230369	42	0.024963748765
122	236018	43	0.024976591511
122	241667	44	0.024963449064
122	247316	45	0.024976320183
122	252965	46	0.0249632037
122	258614	47	0.024976098543
122	264356	48	0.025079844249
122	269995	49	0.024975918238
122	275634	50	0.0249628413
122	281273	51	0.024975772093
122	286912	52	0.02496270989
122	292551	53	0.024975654027
122	298190	54	0.024962603902
122	303915	55	0.025092239638
122	309544	56	0.024962518653
122	315173	57	0.024975482567
122	320802	58	0.024962450267
122	326431	59	0.024975421376
122	332153	60	0.025078916276
122	337772	61	0.024975372466
122	343391	62	0.024962351855
122	349010	63	0.024975333455
122	354629	64	0.024975317042
122	360248	65	0.024962302409
122	365952	66	0.025078650098
122	371561	67	0.024975277748
122	377170	68	0.024975267397
122	382779	69	0.02496225819
122	388388	70	0.024975249992
122	394081	71	0.02507844343
122	399680	72	0.024975236225
122	405279	73	0.024962230472
122	410878	74	0.02497522535
122	416568	75	0.025078901265
122	422157	76	0.024975216778
122	427746	77	0.024962213198
122	433335	78	0.024975210025
122	438924	79	0.024975207216
122	445274	80	0.025920354721
122	450853	81	0.024975243252
122	456432	82	0.024975384071
122	462011	83	0.024962482372
122	467590	84	0.024975570135
122	473169	85	0.024962745023
122	478748	86	0.02497608229
122	484327	87	0.02496349126
122	489906	88	0.024976861806
122	495485	89	0.024964150987
122	501064	90	0.024977368716
122	506643	91	0.024964544878
122	512222	92	0.024977704825
122	517801	93	0.024964867145
122	523380	94	0.024965026767
122	528959	95	0.024978154847
122	534538	96	0.024965251786
122	540117	97	0.024965329307
122	545696	98	0.024978388639
122	551275	99	0.024965413257
122	556854	100	0.02496536084
123	4891	2	0
123	10470	3	0
123	16049	4	0
123	21628	5	0
123	27207	6	0
123	32786	7	0
123	38365	8	0
123	43944	9	0
123	49525	10	0
123	55250	11	0
123	60899	12	0
123	66548	13	0
123	72197	14	0
123	77846	15	0
123	83495	16	0
123	89144	17	0
123	94793	18	0
123	100442	19	0
123	106091	20	0
123	111740	21	0
123	117389	22	0
123	123038	23	0
123	128687	24	0
123	134336	25	0
123	139985	26	0
123	145634	27	0
123	151283	28	0
123	156932	29	0
123	162581	30	0
123	168230	31	0
123	173879	32	0
123	179528	33	0
123	185177	34	0
123	190826	35	0
123	196475	36	0
123	202124	37	0
123	207773	38	0
123	213422	39	0
123	219071	40	0
123	224720	41	0
123	230369	42	0
123	236018	43	0
123	241667	44	0
123	247316	45	0
123	252965	46	0
123	258614	47	0
123	264356	48	0
123	269995	49	0
123	275634	50	0
123	281273	51	0
123	286912	52	0
123	292551	53	0
123	298190	54	0
123	303915	55	0
123	309544	56	0
123	315173	57	0
123	320802	58	0
123	326431	59	0
123	332153	60	0
123	337772	61	0
123	343391	62	0
123	349010	63	0
123	354629	64	0
123	360248	65	0
123	365952	66	0
123	371561	67	0
123	377170	68	0
123	382779	69	0
123	388388	70	0
123	394081	71	0
123	399680	72	0
123	405279	73	0
123	410878	74	0
123	416568	75	0
123	422157	76	0
123	427746	77	0
123	433335	78	0
123	438924	79	0
123	445274	80	0
123	450853	81	0
123	456432	82	0
123	462011	83	0
123	467590	84	0
123	473169	85	0
123	478748	86	0
123	484327	87	0
123	489906	88	0
123	495485	89	0
123	501064	90	0
123	506643	91	0
123	512222	92	0
123	517801	93	0
123	523380	94	0
123	528959	95	0
123	534538	96	0
123	540117	97	0
123	545696	98	0
123	551275	99	0
123	556854	100	0
124	4892	2	8
124	10471	3	8
124	16050	4	8
124	21629	5	8
124	27208	6	8
124	32787	7	8
124	38366	8	8
124	43945	9	8
124	49526	10	8
124	55251	11	8
124	60900	12	8
124	66549	13	8
124	72198	14	8
124	77847	15	8
124	83496	16	8
124	89145	17	8
124	94794	18	8
124	100443	19	8
124	106092	20	8
124	111741	21	8
124	117390	22	8
124	123039	23	8
124	128688	24	8
124	134337	25	8
124	139986	26	8
124	145635	27	8
124	151284	28	8
124	156933	29	8
124	162582	30	8
124	168231	31	8
124	173880	32	8
124	179529	33	8
124	185178	34	8
124	190827	35	8
124	196476	36	8
124	202125	37	8
124	207774	38	8
124	213423	39	8
124	219072	40	8
124	224721	41	8
124	230370	42	8
124	236019	43	8
124	241668	44	8
124	247317	45	8
124	252966	46	8
124	258615	47	8
124	264357	48	8
124	269996	49	8
124	275635	50	8
124	281274	51	8
124	286913	52	8
124	292552	53	8
124	298191	54	8
124	303916	55	8
124	309545	56	8
124	315174	57	8
124	320803	58	8
124	326432	59	8
124	332154	60	8
124	337773	61	8
124	343392	62	8
124	349011	63	8
124	354630	64	8
124	360249	65	8
124	365953	66	8
124	371562	67	8
124	377171	68	8
124	382780	69	8
124	388389	70	8
124	394082	71	8
124	399681	72	8
124	405280	73	8
124	410879	74	8
124	416569	75	8
124	422158	76	8
124	427747	77	8
124	433336	78	8
124	438925	79	8
124	445275	80	8
124	450854	81	8
124	456433	82	8
124	462012	83	8
124	467591	84	8
124	473170	85	8
124	478749	86	8
124	484328	87	8
124	489907	88	8
124	495486	89	8
124	501065	90	8
124	506644	91	8
124	512223	92	8
124	517802	93	8
124	523381	94	8
124	528960	95	8
124	534539	96	8
124	540118	97	8
124	545697	98	8
124	551276	99	8
124	556855	100	8
125	4892	2	0.002817
125	10471	3	0.00313
125	16050	4	0.00313
125	21629	5	0.00313
125	27208	6	0.00313
125	32787	7	0.00313
125	38366	8	0.00313
125	43945	9	0.00313
125	49526	10	0.00313
125	55251	11	0.003179
125	60900	12	0.00313
125	66549	13	0.00313
125	72198	14	0.00313
125	77847	15	0.00313
125	83496	16	0.00313
125	89145	17	0.00313
125	94794	18	0.00313
125	100443	19	0.00313
125	106092	20	0.00313
125	111741	21	0.00313
125	117390	22	0.00313
125	123039	23	0.00313
125	128688	24	0.00313
125	134337	25	0.00313
125	139986	26	0.00313
125	145635	27	0.00313
125	151284	28	0.00313
125	156933	29	0.00313
125	162582	30	0.00313
125	168231	31	0.00313
125	173880	32	0.00313
125	179529	33	0.00313
125	185178	34	0.00313
125	190827	35	0.00313
125	196476	36	0.00313
125	202125	37	0.00313
125	207774	38	0.00313
125	213423	39	0.00313
125	219072	40	0.00313
125	224721	41	0.00313
125	230370	42	0.00313
125	236019	43	0.00313
125	241668	44	0.00313
125	247317	45	0.00313
125	252966	46	0.00313
125	258615	47	0.00313
125	264357	48	0.00313
125	269996	49	0.00313
125	275635	50	0.00313
125	281274	51	0.00313
125	286913	52	0.00313
125	292552	53	0.00313
125	298191	54	0.00313
125	303916	55	0.00313
125	309545	56	0.00313
125	315174	57	0.00313
125	320803	58	0.00313
125	326432	59	0.00313
125	332154	60	0.00313
125	337773	61	0.00313
125	343392	62	0.00313
125	349011	63	0.00313
125	354630	64	0.00313
125	360249	65	0.00313
125	365953	66	0.00313
125	371562	67	0.00313
125	377171	68	0.00313
125	382780	69	0.00313
125	388389	70	0.00313
125	394082	71	0.00313
125	399681	72	0.00313
125	405280	73	0.00313
125	410879	74	0.00313
125	416569	75	0.00313
125	422158	76	0.00313
125	427747	77	0.00313
125	433336	78	0.00313
125	438925	79	0.00313
125	445275	80	0.00313
125	450854	81	0.00313
125	456433	82	0.00313
125	462012	83	0.00313
125	467591	84	0.00313
125	473170	85	0.00313
125	478749	86	0.00313
125	484328	87	0.00313
125	489907	88	0.00313
125	495486	89	0.00313
125	501065	90	0.00313
125	506644	91	0.00313
125	512223	92	0.00313
125	517802	93	0.00313
125	523381	94	0.00313
125	528960	95	0.00313
125	534539	96	0.00313
125	540118	97	0.00313
125	545697	98	0.00313
125	551276	99	0.00313
125	556855	100	0.00313
126	4892	2	0
126	10471	3	0
126	16050	4	0
126	21629	5	0
126	27208	6	0
126	32787	7	0
126	38366	8	0
126	43945	9	0
126	49526	10	0
126	55251	11	0
126	60900	12	0
126	66549	13	0
126	72198	14	0
126	77847	15	0
126	83496	16	0
126	89145	17	0
126	94794	18	0
126	100443	19	0
126	106092	20	0
126	111741	21	0
126	117390	22	0
126	123039	23	0
126	128688	24	0
126	134337	25	0
126	139986	26	0
126	145635	27	0
126	151284	28	0
126	156933	29	0
126	162582	30	0
126	168231	31	0
126	173880	32	0
126	179529	33	0
126	185178	34	0
126	190827	35	0
126	196476	36	0
126	202125	37	0
126	207774	38	0
126	213423	39	0
126	219072	40	0
126	224721	41	0
126	230370	42	0
126	236019	43	0
126	241668	44	0
126	247317	45	0
126	252966	46	0
126	258615	47	0
126	264357	48	0
126	269996	49	0
126	275635	50	0
126	281274	51	0
126	286913	52	0
126	292552	53	0
126	298191	54	0
126	303916	55	0
126	309545	56	0
126	315174	57	0
126	320803	58	0
126	326432	59	0
126	332154	60	0
126	337773	61	0
126	343392	62	0
126	349011	63	0
126	354630	64	0
126	360249	65	0
126	365953	66	0
126	371562	67	0
126	377171	68	0
126	382780	69	0
126	388389	70	0
126	394082	71	0
126	399681	72	0
126	405280	73	0
126	410879	74	0
126	416569	75	0
126	422158	76	0
126	427747	77	0
126	433336	78	0
126	438925	79	0
126	445275	80	0
126	450854	81	0
126	456433	82	0
126	462012	83	0
126	467591	84	0
126	473170	85	0
126	478749	86	0
126	484328	87	0
126	489907	88	0
126	495486	89	0
126	501065	90	0
126	506644	91	0
126	512223	92	0
126	517802	93	0
126	523381	94	0
126	528960	95	0
126	534539	96	0
126	540118	97	0
126	545697	98	0
126	551276	99	0
126	556855	100	0

