file 5384523 1720697986                                         
version 3
run BreakRanksNoGui-805-20240711-13:39:19-288984
attr configname BreakRanksNoGui
attr datetime 20240711-13:39:19
attr datetimef 20240711-133919
attr experiment BreakRanksNoGui
attr inifile omnetpp.ini
attr iterationvars "$nCars=16, $platoonSize=16, $nLanes=1, $ploegH=0.5, $controller=1, $headway=0.1, $leaderHeadway=1.2, $leaderSpeed=130, $breakRanksSafetyDistance=2, $minSpeed=120, $maxSpeed=140, $beaconInterval=0.1, $priority=4, $packetSize=200, $sController=\"CACC\", $0=2, $1=0"
attr iterationvarsd nCars=16/platoonSize=16/nLanes=1/ploegH=0.5/controller=1/headway=0.1/leaderHeadway=1.2/leaderSpeed=130/breakRanksSafetyDistance=2/minSpeed=120/maxSpeed=140/beaconInterval=0.1/priority=4/packetSize=200/sController=CACC/2/0
attr iterationvarsf nCars=16,platoonSize=16,nLanes=1,ploegH=0.5,controller=1,headway=0.1,leaderHeadway=1.2,leaderSpeed=130,breakRanksSafetyDistance=2,minSpeed=120,maxSpeed=140,beaconInterval=0.1,priority=4,packetSize=200,sController=CACC,2,0-
attr measurement "$nCars=16, $platoonSize=16, $nLanes=1, $ploegH=0.5, $controller=1, $headway=0.1, $leaderHeadway=1.2, $leaderSpeed=130, $breakRanksSafetyDistance=2, $minSpeed=120, $maxSpeed=140, $beaconInterval=0.1, $priority=4, $packetSize=200, $sController=\"CACC\", $0=2, $1=0"
attr network Highway
attr processid 288984
attr repetition 5
attr replication #5
attr resultdir results
attr runnumber 805
attr seedset 5
itervar beaconInterval 0.1
itervar breakRanksSafetyDistance 2
itervar controller 1
itervar headway 0.1
itervar leaderHeadway 1.2
itervar leaderSpeed 130
itervar maxSpeed 140
itervar minSpeed 120
itervar nCars 16
itervar nLanes 1
itervar packetSize 200
itervar platoonSize 16
itervar ploegH 0.5
itervar priority 4
itervar sController "\"CACC\""
config image-path ../../../veins/images
config repeat 10
config extends BreakRanks
config *.manager.command "\"sumo\""
config *.manager.ignoreGuiCommands true
config output-vector-file "results/BreakRanks_1_0.1_130_2_16 /result_5.vec"
config output-scalar-file "results/BreakRanks_1_0.1_130_2_16 /result_5.sca"
config extends Platooning
config *.node[*].scenario_type "\"BreakRanksScenario\""
config *.manager.command "\"sumo-gui\""
config *.node[*].scenario_type "\"SimpleScenario\""
config cmdenv-express-mode true
config cmdenv-autoflush true
config cmdenv-status-frequency 15s
config num-rngs 6
config network Highway
config debug-on-errors true
config print-undisposed true
config *.playgroundSizeX 65000m
config *.playgroundSizeY 25000m
config *.playgroundSizeZ 50m
config sim-time-limit "100 s"
config *.annotations.draw false
config *.obstacles.debug false
config *.world.useTorus false
config *.world.use2D false
config *.manager.updateInterval 0.01s
config *.manager.host "\"localhost\""
config *.manager.moduleType "\"org.car2x.plexe.PlatoonCar\""
config *.manager.moduleName "\"node\""
config *.manager.moduleDisplayString "\"\""
config *.manager.autoShutdown true
config *.manager.margin 25
config *.connectionManager.sendDirect true
config *.connectionManager.maxInterfDist 2600m
config *.connectionManager.drawMaxIntfDist false
config *.**.nic.mac1609_4.useServiceChannel false
config *.**.nic.mac1609_4.txPower 100mW
config *.**.nic.mac1609_4.bitrate 6Mbps
config *.**.nic.mac1609_4.useAcks true
config *.**.nic.mac1609_4.ackErrorRate 0.0
config *.**.nic.mac1609_4.frameErrorRate 0.0
config *.**.nic.phy80211p.minPowerLevel -94dBm
config *.**.nic.phy80211p.maxTXPower 100mW
config *.**.nic.phy80211p.useNoiseFloor true
config *.**.nic.phy80211p.noiseFloor -95dBm
config *.**.nic.phy80211p.decider "xmldoc(\"config.xml\")"
config *.**.nic.phy80211p.analogueModels "xmldoc(\"config.xml\")"
config *.**.nic.phy80211p.usePropagationDelay true
config *.node[*].mobility.x 0
config *.node[*].mobility.y 0
config *.node[*].mobility.z 1.895
config seed-set 5
config **.seed 5
config *.node[*].prot.rng-0 2
config *.node[*].appl.rng-0 3
config *.node[*].scenario.rng-0 4
config **.traffic.rng-0 5
config *.manager.configFile "\"./sumocfg/freeway.sumo.cfg\""
config *.manager.launchConfig "xmldoc(\"./sumocfg/freeway.launchd.xml\")"
config **.numberOfCars 16
config **.numberOfCarsPerPlatoon 16
config **.numberOfLanes 1
config *.node[*].helper_type "\"PositionHelper\""
config *.node[*].scenario.caccC1 0.5
config *.node[*].scenario.caccXi 1
config *.node[*].scenario.caccOmegaN "0.2 Hz"
config *.node[*].scenario.caccSpacing "2 m"
config *.node[*].scenario.engineTau "0.5 s"
config *.node[*].scenario.ploegH 0.5s
config *.node[*].scenario.ploegKp 0.2
config *.node[*].scenario.ploegKd 0.7
config *.node[*].scenario.useRealisticEngine false
config *.node[*].scenario.useControllerAcceleration true
config *.node[*].scenario.nLanes 1
config **.numericController 1
config **.headway 0.1s
config *.node[*].scenario.accHeadway 0.1s
config *.node[*].scenario.leaderHeadway 1.2s
config *.node[*].scenario.leaderSpeed 130kmph
config *.node[*].appl_type "\"SimplePlatooningApp\""
config *.node[*].appl.*.scalar-recording true
config *.node[*].appl.*.vector-recording true
config *.node[0].appl.breakRanksSafetyDistance 2m
config *.node[*].appl.minSpeed 120kmph
config *.node[*].appl.maxSpeed 140kmph
config *.node[*].protocol_type "\"SimplePlatooningBeaconing\""
config *.node[*].prot.*.scalar-recording true
config *.node[*].prot.*.vector-recording true
config *.node[*].prot.beaconingInterval 0.1s
config *.node[*].prot.priority 4
config *.node[*].prot.packetSize 200
config **.traffic_type "\"PlatoonsTrafficManager\""
config **.traffic.platoonInsertTime "1 s"
config **.traffic.platoonInsertSpeed 130kmph
config **.traffic.nCars 16
config **.traffic.platoonSize 16
config **.traffic.nLanes 1
config **.traffic.platooningVType "\"vtypeauto\""
config **.traffic.controller "\"CACC\""
config **.traffic.platoonInsertDistance 2m
config **.traffic.platoonInsertHeadway 0s
config **.traffic.platoonLeaderHeadway 1.2s
config **.scalar-recording false
config **.vector-recording false

vector 0 Highway.node[0].appl distance ETV
vector 1 Highway.node[0].appl relativeSpeed ETV
vector 2 Highway.node[0].appl nodeId ETV
vector 3 Highway.node[0].appl acceleration ETV
vector 4 Highway.node[0].appl controllerAcceleration ETV
vector 5 Highway.node[0].appl speed ETV
vector 6 Highway.node[0].appl posx ETV
vector 7 Highway.node[0].appl posy ETV
vector 8 Highway.node[1].appl distance ETV
vector 9 Highway.node[1].appl relativeSpeed ETV
vector 10 Highway.node[1].appl nodeId ETV
vector 11 Highway.node[1].appl acceleration ETV
vector 12 Highway.node[1].appl controllerAcceleration ETV
vector 13 Highway.node[1].appl speed ETV
vector 14 Highway.node[1].appl posx ETV
vector 15 Highway.node[1].appl posy ETV
vector 16 Highway.node[2].appl distance ETV
vector 17 Highway.node[2].appl relativeSpeed ETV
vector 18 Highway.node[2].appl nodeId ETV
vector 19 Highway.node[2].appl acceleration ETV
vector 20 Highway.node[2].appl controllerAcceleration ETV
vector 21 Highway.node[2].appl speed ETV
vector 22 Highway.node[2].appl posx ETV
vector 23 Highway.node[2].appl posy ETV
vector 24 Highway.node[3].appl distance ETV
vector 25 Highway.node[3].appl relativeSpeed ETV
vector 26 Highway.node[3].appl nodeId ETV
vector 27 Highway.node[3].appl acceleration ETV
vector 28 Highway.node[3].appl controllerAcceleration ETV
vector 29 Highway.node[3].appl speed ETV
vector 30 Highway.node[3].appl posx ETV
vector 31 Highway.node[3].appl posy ETV
vector 32 Highway.node[4].appl distance ETV
vector 33 Highway.node[4].appl relativeSpeed ETV
vector 34 Highway.node[4].appl nodeId ETV
vector 35 Highway.node[4].appl acceleration ETV
vector 36 Highway.node[4].appl controllerAcceleration ETV
vector 37 Highway.node[4].appl speed ETV
vector 38 Highway.node[4].appl posx ETV
vector 39 Highway.node[4].appl posy ETV
vector 40 Highway.node[5].appl distance ETV
vector 41 Highway.node[5].appl relativeSpeed ETV
vector 42 Highway.node[5].appl nodeId ETV
vector 43 Highway.node[5].appl acceleration ETV
vector 44 Highway.node[5].appl controllerAcceleration ETV
vector 45 Highway.node[5].appl speed ETV
vector 46 Highway.node[5].appl posx ETV
vector 47 Highway.node[5].appl posy ETV
vector 48 Highway.node[6].appl distance ETV
vector 49 Highway.node[6].appl relativeSpeed ETV
vector 50 Highway.node[6].appl nodeId ETV
vector 51 Highway.node[6].appl acceleration ETV
vector 52 Highway.node[6].appl controllerAcceleration ETV
vector 53 Highway.node[6].appl speed ETV
vector 54 Highway.node[6].appl posx ETV
vector 55 Highway.node[6].appl posy ETV
vector 56 Highway.node[7].appl distance ETV
vector 57 Highway.node[7].appl relativeSpeed ETV
vector 58 Highway.node[7].appl nodeId ETV
vector 59 Highway.node[7].appl acceleration ETV
vector 60 Highway.node[7].appl controllerAcceleration ETV
vector 61 Highway.node[7].appl speed ETV
vector 62 Highway.node[7].appl posx ETV
vector 63 Highway.node[7].appl posy ETV
vector 64 Highway.node[8].appl distance ETV
vector 65 Highway.node[8].appl relativeSpeed ETV
vector 66 Highway.node[8].appl nodeId ETV
vector 67 Highway.node[8].appl acceleration ETV
vector 68 Highway.node[8].appl controllerAcceleration ETV
vector 69 Highway.node[8].appl speed ETV
vector 70 Highway.node[8].appl posx ETV
vector 71 Highway.node[8].appl posy ETV
vector 72 Highway.node[9].appl distance ETV
vector 73 Highway.node[9].appl relativeSpeed ETV
vector 74 Highway.node[9].appl nodeId ETV
vector 75 Highway.node[9].appl acceleration ETV
vector 76 Highway.node[9].appl controllerAcceleration ETV
vector 77 Highway.node[9].appl speed ETV
vector 78 Highway.node[9].appl posx ETV
vector 79 Highway.node[9].appl posy ETV
vector 80 Highway.node[10].appl distance ETV
vector 81 Highway.node[10].appl relativeSpeed ETV
vector 82 Highway.node[10].appl nodeId ETV
vector 83 Highway.node[10].appl acceleration ETV
vector 84 Highway.node[10].appl controllerAcceleration ETV
vector 85 Highway.node[10].appl speed ETV
vector 86 Highway.node[10].appl posx ETV
vector 87 Highway.node[10].appl posy ETV
vector 88 Highway.node[11].appl distance ETV
vector 89 Highway.node[11].appl relativeSpeed ETV
vector 90 Highway.node[11].appl nodeId ETV
vector 91 Highway.node[11].appl acceleration ETV
vector 92 Highway.node[11].appl controllerAcceleration ETV
vector 93 Highway.node[11].appl speed ETV
vector 94 Highway.node[11].appl posx ETV
vector 95 Highway.node[11].appl posy ETV
vector 96 Highway.node[12].appl distance ETV
vector 97 Highway.node[12].appl relativeSpeed ETV
vector 98 Highway.node[12].appl nodeId ETV
vector 99 Highway.node[12].appl acceleration ETV
vector 100 Highway.node[12].appl controllerAcceleration ETV
vector 101 Highway.node[12].appl speed ETV
vector 102 Highway.node[12].appl posx ETV
vector 103 Highway.node[12].appl posy ETV
vector 104 Highway.node[13].appl distance ETV
vector 105 Highway.node[13].appl relativeSpeed ETV
vector 106 Highway.node[13].appl nodeId ETV
vector 107 Highway.node[13].appl acceleration ETV
vector 108 Highway.node[13].appl controllerAcceleration ETV
vector 109 Highway.node[13].appl speed ETV
vector 110 Highway.node[13].appl posx ETV
vector 111 Highway.node[13].appl posy ETV
vector 112 Highway.node[14].appl distance ETV
vector 113 Highway.node[14].appl relativeSpeed ETV
vector 114 Highway.node[14].appl nodeId ETV
vector 115 Highway.node[14].appl acceleration ETV
vector 116 Highway.node[14].appl controllerAcceleration ETV
vector 117 Highway.node[14].appl speed ETV
vector 118 Highway.node[14].appl posx ETV
vector 119 Highway.node[14].appl posy ETV
vector 120 Highway.node[15].appl distance ETV
vector 121 Highway.node[15].appl relativeSpeed ETV
vector 122 Highway.node[15].appl nodeId ETV
vector 123 Highway.node[15].appl acceleration ETV
vector 124 Highway.node[15].appl controllerAcceleration ETV
vector 125 Highway.node[15].appl speed ETV
vector 126 Highway.node[15].appl posx ETV
vector 127 Highway.node[15].appl posy ETV
vector 128 Highway.node[8].prot frontDelay ETV
vector 129 Highway.node[8].prot frontDelayId ETV
vector 130 Highway.node[13].prot frontDelay ETV
vector 131 Highway.node[13].prot frontDelayId ETV
vector 132 Highway.node[2].prot frontDelay ETV
vector 133 Highway.node[2].prot frontDelayId ETV
vector 134 Highway.node[6].prot frontDelay ETV
vector 135 Highway.node[6].prot frontDelayId ETV
vector 136 Highway.node[12].prot frontDelay ETV
vector 137 Highway.node[12].prot frontDelayId ETV
vector 138 Highway.node[3].prot frontDelay ETV
vector 139 Highway.node[3].prot frontDelayId ETV
vector 140 Highway.node[4].prot frontDelay ETV
vector 141 Highway.node[4].prot frontDelayId ETV
vector 142 Highway.node[14].prot frontDelay ETV
vector 143 Highway.node[14].prot frontDelayId ETV
vector 144 Highway.node[5].prot frontDelay ETV
vector 145 Highway.node[5].prot frontDelayId ETV
vector 146 Highway.node[10].prot frontDelay ETV
vector 147 Highway.node[10].prot frontDelayId ETV
vector 148 Highway.node[9].prot frontDelay ETV
vector 149 Highway.node[9].prot frontDelayId ETV
vector 150 Highway.node[11].prot frontDelay ETV
vector 151 Highway.node[11].prot frontDelayId ETV
vector 152 Highway.node[1].prot leaderDelay ETV
vector 153 Highway.node[1].prot leaderDelayId ETV
vector 154 Highway.node[1].prot frontDelay ETV
vector 155 Highway.node[1].prot frontDelayId ETV
vector 156 Highway.node[8].prot leaderDelay ETV
vector 157 Highway.node[8].prot leaderDelayId ETV
vector 158 Highway.node[9].prot leaderDelay ETV
vector 159 Highway.node[9].prot leaderDelayId ETV
vector 160 Highway.node[10].prot leaderDelay ETV
vector 161 Highway.node[10].prot leaderDelayId ETV
vector 162 Highway.node[11].prot leaderDelay ETV
vector 163 Highway.node[11].prot leaderDelayId ETV
vector 164 Highway.node[12].prot leaderDelay ETV
vector 165 Highway.node[12].prot leaderDelayId ETV
vector 166 Highway.node[13].prot leaderDelay ETV
vector 167 Highway.node[13].prot leaderDelayId ETV
vector 168 Highway.node[14].prot leaderDelay ETV
vector 169 Highway.node[14].prot leaderDelayId ETV
vector 170 Highway.node[15].prot leaderDelay ETV
vector 171 Highway.node[15].prot leaderDelayId ETV
vector 172 Highway.node[2].prot leaderDelay ETV
vector 173 Highway.node[2].prot leaderDelayId ETV
vector 174 Highway.node[3].prot leaderDelay ETV
vector 175 Highway.node[3].prot leaderDelayId ETV
vector 176 Highway.node[4].prot leaderDelay ETV
vector 177 Highway.node[4].prot leaderDelayId ETV
vector 178 Highway.node[5].prot leaderDelay ETV
vector 179 Highway.node[5].prot leaderDelayId ETV
vector 180 Highway.node[6].prot leaderDelay ETV
vector 181 Highway.node[6].prot leaderDelayId ETV
vector 182 Highway.node[7].prot leaderDelay ETV
vector 183 Highway.node[7].prot leaderDelayId ETV
vector 184 Highway.node[15].prot frontDelay ETV
vector 185 Highway.node[15].prot frontDelayId ETV
vector 186 Highway.node[7].prot frontDelay ETV
vector 187 Highway.node[7].prot frontDelayId ETV
vector 188 Highway.node[0].prot nodeId ETV
vector 189 Highway.node[0].prot busyTime ETV
vector 190 Highway.node[0].prot collisions ETV
vector 191 Highway.node[1].prot nodeId ETV
vector 192 Highway.node[1].prot busyTime ETV
vector 193 Highway.node[1].prot collisions ETV
vector 194 Highway.node[2].prot nodeId ETV
vector 195 Highway.node[2].prot busyTime ETV
vector 196 Highway.node[2].prot collisions ETV
vector 197 Highway.node[3].prot nodeId ETV
vector 198 Highway.node[3].prot busyTime ETV
vector 199 Highway.node[3].prot collisions ETV
vector 200 Highway.node[4].prot nodeId ETV
vector 201 Highway.node[4].prot busyTime ETV
vector 202 Highway.node[4].prot collisions ETV
vector 203 Highway.node[5].prot nodeId ETV
vector 204 Highway.node[5].prot busyTime ETV
vector 205 Highway.node[5].prot collisions ETV
vector 206 Highway.node[6].prot nodeId ETV
vector 207 Highway.node[6].prot busyTime ETV
vector 208 Highway.node[6].prot collisions ETV
vector 209 Highway.node[7].prot nodeId ETV
vector 210 Highway.node[7].prot busyTime ETV
vector 211 Highway.node[7].prot collisions ETV
vector 212 Highway.node[8].prot nodeId ETV
vector 213 Highway.node[8].prot busyTime ETV
vector 214 Highway.node[8].prot collisions ETV
vector 215 Highway.node[9].prot nodeId ETV
vector 216 Highway.node[9].prot busyTime ETV
vector 217 Highway.node[9].prot collisions ETV
vector 218 Highway.node[10].prot nodeId ETV
vector 219 Highway.node[10].prot busyTime ETV
vector 220 Highway.node[10].prot collisions ETV
vector 221 Highway.node[11].prot nodeId ETV
vector 222 Highway.node[11].prot busyTime ETV
vector 223 Highway.node[11].prot collisions ETV
vector 224 Highway.node[12].prot nodeId ETV
vector 225 Highway.node[12].prot busyTime ETV
vector 226 Highway.node[12].prot collisions ETV
vector 227 Highway.node[13].prot nodeId ETV
vector 228 Highway.node[13].prot busyTime ETV
vector 229 Highway.node[13].prot collisions ETV
vector 230 Highway.node[14].prot nodeId ETV
vector 231 Highway.node[14].prot busyTime ETV
vector 232 Highway.node[14].prot collisions ETV
vector 233 Highway.node[15].prot nodeId ETV
vector 234 Highway.node[15].prot busyTime ETV
vector 235 Highway.node[15].prot collisions ETV
0	16895 18177 113 2090031 1.11 99.91 989 -1 -1 -989 989
1	35072 17188 113 2090031 1.11 99.91 989 0 0 0 0
2	52260 17188 113 2090031 1.11 99.91 989 0 0 0 0
3	69448 19476 113 2090031 1.11 99.91 989 -3.14892e-05 0.000707784 0.010991577126781 6.0508064149601e-06
4	88924 27134 113 2090031 1.11 99.91 989 -4.89399e-05 0.00109259 0.010614843047836 8.6815283230331e-06
5	116058 23115 113 2090031 1.11 99.91 989 36.11 36.1111 35713.866699999 1289666.6073546
6	139173 23012 113 2090031 1.11 99.91 989 106.41 3674.19 1869503.95 4585125735.6776
7	162185 22133 113 2090031 1.11 99.91 989 242.45 242.45 239783.05 58135400.472499
8	184318 19304 114 2090032 1.11 99.91 989 2 2.0003 1978.04079 3956.1631684911
9	203622 27898 114 2090032 1.11 99.91 989 -2.47498e-05 0.000135767 8.6316544899541e-08 3.2433900581872e-07
10	231520 18177 114 2090032 1.11 99.91 989 1 1 989 989
11	249697 28847 114 2090032 1.11 99.91 989 -2.52666e-05 0.000687909 0.01099995430134 5.7217920352848e-06
12	278544 28777 114 2090032 1.11 99.91 989 -4.66642e-05 0.00107175 0.011002948298412 8.5840090640469e-06
13	307321 24099 114 2090032 1.11 99.91 989 36.11 36.1111 35713.864199999 1289666.4268016
14	331420 24001 114 2090032 1.11 99.91 989 100.41 3668.19 1863569.912 4562727258.8271
15	355421 23122 114 2090032 1.11 99.91 989 242.45 242.45 239783.05 58135400.472499
16	378543 22437 115 2090033 1.11 99.91 989 1.99999 2.00007 1978.02779 3956.1111614567
17	400980 28023 115 2090033 1.11 99.91 989 -4.92179e-06 1.97141e-06 0.00068394499855 9.8939332832848e-10
18	429003 19166 115 2090033 1.11 99.91 989 10 10 9890 98900
19	448169 28015 115 2090033 1.11 99.91 989 -1.40753e-05 0.000663776 0.011067688063679 5.2873690845681e-06
20	476184 28027 115 2090033 1.11 99.91 989 -3.52975e-05 0.000987396 0.011068593947163 7.5952159632515e-06
21	504211 24097 115 2090033 1.11 99.91 989 36.11 36.1111 35713.863299999 1289666.3618022
22	528308 24007 115 2090033 1.11 99.91 989 46.4099 3614.19 1810163.5412 4364344696.0626
23	552315 23122 115 2090033 1.11 99.91 989 242.45 242.45 239783.05 58135400.472499
24	575437 21885 116 2090034 1.11 99.91 989 2 2.00007 1978.02082 3956.0832809214
25	597322 28104 116 2090034 1.11 99.91 989 -2.78245e-06 3.47641e-06 0.00065192668937 9.2360565090202e-10
26	625426 19166 116 2090034 1.11 99.91 989 11 11 10879 119669
27	644592 28093 116 2090034 1.11 99.91 989 -1.27374e-05 0.00066598 0.01106372566972 5.2892859935443e-06
28	672685 28096 116 2090034 1.11 99.91 989 -3.92136e-05 0.00100172 0.011064809343098 7.6864245225478e-06
29	700781 24097 116 2090034 1.11 99.91 989 36.11 36.1111 35713.863299999 1289666.3618022
30	724878 24007 116 2090034 1.11 99.91 989 40.4099 3608.19 1804229.5449 4342658343.6876
31	748885 23122 116 2090034 1.11 99.91 989 242.45 242.45 239783.05 58135400.472499
32	772007 22053 117 2090035 1.11 99.91 989 1.99999 2.00006 1978.01399 3956.0559605631
33	794060 28009 117 2090035 1.11 99.91 989 -4.0099e-06 1.22632e-06 0.0005650779975 8.7375831756773e-10
34	822069 19166 117 2090035 1.11 99.91 989 12 12 11868 142416
35	841235 27988 117 2090035 1.11 99.91 989 -1.31013e-05 0.000668287 0.01105482089725 5.3304608764597e-06
36	869223 28006 117 2090035 1.11 99.91 989 -4.93984e-05 0.00102773 0.01105594310842 7.7968590769806e-06
37	897229 24097 117 2090035 1.11 99.91 989 36.11 36.1111 35713.863299999 1289666.3618022
38	921326 24007 117 2090035 1.11 99.91 989 34.4099 3602.19 1798295.553 4321043210.9189
39	945333 23122 117 2090035 1.11 99.91 989 242.45 242.45 239783.05 58135400.472499
40	968455 22263 118 2090036 1.11 99.91 989 1.99998 2.00005 1978.00724 3956.028960341
41	990718 27983 118 2090036 1.11 99.91 989 -6.78132e-06 1.42399e-06 0.0004548787399 1.5593163827389e-09
42	1018701 19166 118 2090036 1.11 99.91 989 13 13 12857 167141
43	1037867 28008 118 2090036 1.11 99.91 989 -1.51161e-05 0.000672144 0.01104392679966 5.3821042120737e-06
44	1065875 28004 118 2090036 1.11 99.91 989 -4.52996e-05 0.00104469 0.01104497250055 7.890929513811e-06
45	1093879 24098 118 2090036 1.11 99.91 989 36.11 36.1111 35713.863399999 1289666.3690244
46	1117977 24011 118 2090036 1.11 99.91 989 28.4099 3596.19 1792361.5487 4299499257.7924
47	1141988 23122 118 2090036 1.11 99.91 989 242.45 242.45 239783.05 58135400.472499
48	1165110 22185 119 2090037 1.11 99.91 989 1.99999 2.00003 1978.00552 3956.0220801724
49	1187295 28155 119 2090037 1.11 99.91 989 -2.27646e-06 1.04884e-05 0.00034411946396 1.7887642335091e-09
50	1215450 19166 119 2090037 1.11 99.91 989 14 14 13846 193844
51	1234616 28144 119 2090037 1.11 99.91 989 -1.56638e-05 0.000670825 0.011033146762814 5.3715406792262e-06
52	1262760 28122 119 2090037 1.11 99.91 989 -3.79406e-05 0.00101703 0.01103447787777 7.6662560239445e-06
53	1290882 24098 119 2090037 1.11 99.91 989 36.11 36.1111 35713.863399999 1289666.3690244
54	1314980 24010 119 2090037 1.11 99.91 989 22.4099 3590.19 1786427.5461 4278026519.1265
55	1338990 23122 119 2090037 1.11 99.91 989 242.45 242.45 239783.05 58135400.472499
56	1362112 21351 120 2090038 1.11 99.91 989 1.99999 2.00002 1978.0036 3956.0144000868
57	1383463 28220 120 2090038 1.11 99.91 989 -1.93744e-06 2.58002e-06 0.0002464683309639 4.0734104968345e-10
58	1411683 19166 120 2090038 1.11 99.91 989 15 15 14835 222525
59	1430849 28218 120 2090038 1.11 99.91 989 -1.55489e-05 0.000667648 0.011018802392186 5.3425794447517e-06
60	1459067 28216 120 2090038 1.11 99.91 989 -3.24284e-05 0.000973986 0.010543312181479 7.246753733183e-06
61	1487283 24098 120 2090038 1.11 99.91 989 36.11 36.1111 35713.863399999 1289666.3690244
62	1511381 24007 120 2090038 1.11 99.91 989 16.4099 3584.19 1780493.544 4256624989.6068
63	1535388 23122 120 2090038 1.11 99.91 989 242.45 242.45 239783.05 58135400.472499
64	1558510 21335 121 2090039 1.11 99.91 989 2 2.00018 1978.04247 3956.1698851945
65	1579845 28784 121 2090039 1.11 99.91 989 -8.95687e-06 1.89266e-05 8.8956260000288e-08 3.3332980737758e-08
66	1608629 18177 121 2090039 1.11 99.91 989 2 2 1978 3956
67	1626806 28801 121 2090039 1.11 99.91 989 -2.50379e-05 0.000677508 0.011000000786428 5.5467232069002e-06
68	1655607 28795 121 2090039 1.11 99.91 989 -4.68986e-05 0.00106024 0.011000736822944 8.0451181448674e-06
69	1684402 24098 121 2090039 1.11 99.91 989 36.11 36.1111 35713.863899999 1289666.4051351
70	1708500 24002 121 2090039 1.11 99.91 989 94.4099 3662.19 1857635.8658 4540399934.9634
71	1732502 23122 121 2090039 1.11 99.91 989 242.45 242.45 239783.05 58135400.472499
72	1755624 22278 122 2090040 1.11 99.91 989 2 2.00013 1978.04529 3956.1811641705
73	1777902 28660 122 2090040 1.11 99.91 989 -5.28779e-06 2.31765e-05 1.3489675999995e-06 1.6133105395723e-08
74	1806562 18177 122 2090040 1.11 99.91 989 3 3 2967 8901
75	1824739 28718 122 2090040 1.11 99.91 989 -2.43081e-05 0.000676658 0.01100017795423 5.5094513318788e-06
76	1853457 28721 122 2090040 1.11 99.91 989 -4.62874e-05 0.00106157 0.01100090379321 8.0585537757447e-06
77	1882178 24099 122 2090040 1.11 99.91 989 36.11 36.1111 35713.863499999 1289666.3762466
78	1906277 24023 122 2090040 1.11 99.91 989 88.4099 3656.19 1851701.7686 4518143619.3225
79	1930300 23122 122 2090040 1.11 99.91 989 242.45 242.45 239783.05 58135400.472499
80	1953422 23113 123 2090041 1.11 99.91 989 2 2.00011 1978.04528 3956.1811235508
81	1976535 28593 123 2090041 1.11 99.91 989 -4.61669e-06 1.57085e-05 1.0304070599998e-05 9.398355118035e-09
82	2005128 18177 123 2090041 1.11 99.91 989 4 4 3956 15824
83	2023305 28627 123 2090041 1.11 99.91 989 -2.61661e-05 0.000676435 0.011001345373736 5.5271858269793e-06
84	2051932 28622 123 2090041 1.11 99.91 989 -4.81004e-05 0.00102519 0.011002006720142 7.9024841662974e-06
85	2080554 24099 123 2090041 1.11 99.91 989 36.11 36.1111 35713.863299999 1289666.3618024
86	2104653 24018 123 2090041 1.11 99.91 989 82.4099 3650.19 1845767.5505 4495958227.7405
87	2128671 23122 123 2090041 1.11 99.91 989 242.45 242.45 239783.05 58135400.472499
88	2151793 23789 124 2090042 1.11 99.91 989 2 2.0001 1978.0478 3956.1912032786
89	2175582 28488 124 2090042 1.11 99.91 989 -4.86953e-06 7.30471e-06 4.756050114e-05 5.6082198442033e-09
90	2204070 18177 124 2090042 1.11 99.91 989 5 5 4945 24725
91	2222247 28518 124 2090042 1.11 99.91 989 -2.50379e-05 0.000675346 0.01100584572241 5.4692448125795e-06
92	2250765 28518 124 2090042 1.11 99.91 989 -4.69506e-05 0.00101972 0.011006295329782 7.9201551843172e-06
93	2279283 24098 124 2090042 1.11 99.91 989 36.11 36.1111 35713.863399999 1289666.3690244
94	2303381 24014 124 2090042 1.11 99.91 989 76.4099 3644.19 1839833.5463 4473844617.1986
95	2327395 23122 124 2090042 1.11 99.91 989 242.45 242.45 239783.05 58135400.472499
96	2350517 23961 125 2090043 1.11 99.91 989 2 2.00009 1978.04902 3956.1960830914
97	2374478 28461 125 2090043 1.11 99.91 989 -3.22625e-06 1.09525e-05 0.00014417343518 5.1188608090508e-09
98	2402939 18177 125 2090043 1.11 99.91 989 6 6 5934 35604
99	2421116 28448 125 2090043 1.11 99.91 989 -2.07437e-05 0.000667447 0.011016619408277 5.349742948172e-06
100	2449564 29434 125 2090043 1.11 99.91 989 -4.13623e-05 0.000974036 0.011016777578137 7.5938979942368e-06
101	2478998 25087 125 2090043 1.11 99.91 989 36.11 36.1111 35713.863399999 1289666.3690244
102	2504085 24999 125 2090043 1.11 99.91 989 70.4099 3638.19 1833899.5502 4451802228.9948
103	2529084 24111 125 2090043 1.11 99.91 989 242.45 242.45 239783.05 58135400.472499
104	2553195 24404 126 2090044 1.11 99.91 989 2 2.00008 1978.04498 3956.1799227611
105	2577599 29294 126 2090044 1.11 99.91 989 -2.04926e-06 2.26578e-06 0.00030753067215 2.3176426851458e-09
106	2606893 19166 126 2090044 1.11 99.91 989 7 7 6923 48461
107	2626059 29312 126 2090044 1.11 99.91 989 -1.88993e-05 0.000664649 0.01103349308562 5.326250796296e-06
108	2655371 29333 126 2090044 1.11 99.91 989 -3.78932e-05 0.000943679 0.011033516751825 7.4683089288143e-06
109	2684704 25087 126 2090044 1.11 99.91 989 36.11 36.1111 35713.863399999 1289666.3690244
110	2709791 24997 126 2090044 1.11 99.91 989 64.4099 3632.19 1827965.5472 4429831033.586
111	2734788 24111 126 2090044 1.11 99.91 989 242.45 242.45 239783.05 58135400.472499
112	2758899 24818 127 2090045 1.11 99.91 989 2 2.00008 1978.04184 3956.1673624725
113	2783717 29228 127 2090045 1.11 99.91 989 -3.10339e-06 4.59799e-06 0.0004927028078361 1.760431393378e-09
114	2812945 19166 127 2090045 1.11 99.91 989 8 8 7912 63296
115	2832111 29206 127 2090045 1.11 99.91 989 -1.68054e-05 0.000666567 0.011051353025782 5.3147638705665e-06
116	2861317 29237 127 2090045 1.11 99.91 989 -3.79315e-05 0.000953675 0.01105119202182 7.6279435139684e-06
117	2890554 25086 127 2090045 1.11 99.91 989 36.11 36.1111 35713.863299999 1289666.3618022
118	2915640 24996 127 2090045 1.11 99.91 989 58.4099 3626.19 1822031.5423 4407931042.3156
119	2940636 24111 127 2090045 1.11 99.91 989 242.45 242.45 239783.05 58135400.472499
120	2964747 23966 128 2090046 1.11 99.91 989 2 2.00007 1978.03463 3956.1385219457
121	2988713 29136 128 2090046 1.11 99.91 989 -3.13394e-06 1.78884e-06 0.00063198571954 1.0490901503302e-09
122	3017849 19166 128 2090046 1.11 99.91 989 9 9 8901 80109
123	3037015 29106 128 2090046 1.11 99.91 989 -1.54575e-05 0.000666008 0.011058966427236 5.3143848261866e-06
124	3066121 29115 128 2090046 1.11 99.91 989 -4.8591e-05 0.000957832 0.010582768258485 7.2354802872488e-06
125	3095236 25086 128 2090046 1.11 99.91 989 36.11 36.1111 35713.863299999 1289666.3618022
126	3120322 24995 128 2090046 1.11 99.91 989 52.4099 3620.19 1816097.5387 4386102260.2193
127	3145317 24111 128 2090046 1.11 99.91 989 242.45 242.45 239783.05 58135400.472499
128	3169428 41549 2286 2090098 1.217224021398 99.91722784327 988 0.099993001384 0.1000060014 98.799996823256 9.8799994061134
129	3210977 28865 2286 2090098 1.217224021398 99.91722784327 988 2 2 1976 3952
130	3239842 41450 2417 2090229 1.221326121467 99.921329943339 988 0.099993001384 0.1000060014 98.799996823256 9.8799994061134
131	3281292 28766 2417 2090229 1.221326121467 99.921329943339 988 7 7 6916 48412
132	3310058 41639 2542 2090354 1.239559181509 99.939563003381 988 0.099993001384 0.1000060014 98.799996823256 9.8799994061134
133	3351697 29943 2542 2090354 1.239559181509 99.939563003381 988 10 10 9880 98800
134	3381640 41631 2679 2090491 1.244025261564 99.944029083437 988 0.099993001384 0.1000060014 98.799996823257 9.8799994061136
135	3423271 29935 2679 2090491 1.244025261564 99.944029083437 988 14 14 13832 193648
136	3453206 41557 2809 2090621 1.246320421675 99.946324243549 988 0.099993001384 0.1000060014 98.799996823258 9.8799994061138
137	3494763 28873 2809 2090621 1.246320421675 99.946324243549 988 6 6 5928 35568
138	3523636 41538 2933 2090745 1.248212521744 99.948216343619 988 0.099993001384 0.1000060014 98.799996823259 9.879999406114
139	3565174 29842 2933 2090745 1.248212521744 99.948216343619 988 11 11 10868 119548
140	3595016 41592 3070 2090882 1.253003541758 99.953007363633 988 0.099993001384 0.1000060014 98.800009823259 9.880002006101
141	3636608 29896 3070 2090882 1.253003541758 99.953007363633 988 12 12 11856 142272
142	3666504 41555 3200 2091012 1.256455621813 99.956459443689 988 0.099993001384 0.1000060014 98.79999682326 9.8799994061142
143	3708059 28871 3200 2091012 1.256455621813 99.956459443689 988 8 8 7904 63232
144	3736930 41551 3331 2091143 1.266277721882 99.966281543759 988 0.099993001384 0.1000060014 98.800009823261 9.8800020061014
145	3778481 29855 3331 2091143 1.266277721882 99.966281543759 988 13 13 12844 166972
146	3808336 41638 3463 2091275 1.283756902007 99.983760723885 988 0.099993001384 0.1000060014 98.799996823262 9.8799994061146
147	3849974 28954 3463 2091275 1.283756902007 99.983760723885 988 4 4 3952 15808
148	3878928 41583 3593 2091405 1.284244922021 99.984248743899 988 0.099993001384 0.1000060014 98.799996823262 9.8799994061146
149	3920511 28899 3593 2091405 1.284244922021 99.984248743899 988 3 3 2964 8892
150	3949410 41646 3854 2091666 1.292124402353 99.992128224235 988 0.099993001384 0.1000060014 98.800009823266 9.8800020061024
151	3991056 28962 3854 2091666 1.292124402353 99.992128224235 988 5 5 4940 24700
152	4020018 41606 3978 2091790 1.296343482408 99.99634730429 988 0.099993001384 0.1000060014 98.799996823266 9.8799994061154
153	4061624 28920 3978 2091790 1.296343482408 99.99634730429 988 1 1 988 988
154	4090544 41606 3978 2091790 1.296343482408 99.99634730429 988 0.099993001384 0.1000060014 98.799996823266 9.8799994061154
155	4132150 28920 3978 2091790 1.296343482408 99.99634730429 988 1 1 988 988
156	4161070 41614 3984 2091796 1.296343502422 99.996347324304 988 0.099993001384 0.1000060014 98.799996823266 9.8799994061154
157	4202684 28928 3984 2091796 1.296343502422 99.996347324304 988 2 2 1976 3952
158	4231612 41514 3990 2091802 1.296343522436 99.996347344318 988 0.099993001384 0.1000060014 98.799996823266 9.8799994061154
159	4273126 28828 3990 2091802 1.296343522436 99.996347344318 988 3 3 2964 8892
160	4301954 41652 3996 2091808 1.296343542449 99.996347364331 988 0.099993001384 0.1000060014 98.799996823266 9.8799994061154
161	4343606 28966 3996 2091808 1.296343542449 99.996347364331 988 4 4 3952 15808
162	4372572 41626 4002 2091814 1.296343562463 99.996347384345 988 0.099993001384 0.1000060014 98.799996823266 9.8799994061154
163	4414198 28940 4002 2091814 1.296343562463 99.996347384345 988 5 5 4940 24700
164	4443138 41635 4008 2091820 1.296343582477 99.996347404359 988 0.099993001384 0.1000060014 98.799996823266 9.8799994061154
165	4484773 28949 4008 2091820 1.296343582477 99.996347404359 988 6 6 5928 35568
166	4513722 41638 4014 2091826 1.296343602491 99.996347424373 988 0.099993001384 0.1000060014 98.799996823266 9.8799994061154
167	4555360 28953 4014 2091826 1.296343602491 99.996347424373 988 7 7 6916 48412
168	4584313 41511 4020 2091832 1.296343622505 99.996347444387 988 0.099993001384 0.1000060014 98.799996823266 9.8799994061154
169	4625824 28825 4020 2091832 1.296343622505 99.996347444387 988 8 8 7904 63232
170	4654649 41624 4026 2091838 1.296343642519 99.996347464401 988 0.099993001384 0.1000060014 98.799996823266 9.8799994061154
171	4696273 28938 4026 2091838 1.296343642519 99.996347464401 988 9 9 8892 80028
172	4725211 41628 4032 2091844 1.296343662532 99.996347484415 988 0.099993001384 0.1000060014 98.799996823267 9.8799994061156
173	4766839 29930 4032 2091844 1.296343662532 99.996347484415 988 10 10 9880 98800
174	4796769 41612 4038 2091850 1.296343682546 99.996347504429 988 0.099993001384 0.1000060014 98.799996823267 9.8799994061156
175	4838381 29914 4038 2091850 1.296343682546 99.996347504429 988 11 11 10868 119548
176	4868295 41628 4044 2091856 1.29634370256 99.996347524443 988 0.099993001384 0.1000060014 98.799996823267 9.8799994061156
177	4909923 29930 4044 2091856 1.29634370256 99.996347524443 988 12 12 11856 142272
178	4939853 41514 4050 2091862 1.296343722574 99.996347544457 988 0.099993001384 0.1000060014 98.799996823267 9.8799994061156
179	4981367 29817 4050 2091862 1.296343722574 99.996347544457 988 13 13 12844 166972
180	5011184 41658 4056 2091868 1.296343742588 99.996347564471 988 0.099993001384 0.1000060014 98.799996823267 9.8799994061156
181	5052842 29960 4056 2091868 1.296343742588 99.996347564471 988 14 14 13832 193648
182	5082802 41638 4062 2091874 1.296343762602 99.996347584485 988 0.099993001384 0.1000060014 98.799996823267 9.8799994061156
183	5124440 29940 4062 2091874 1.296343762602 99.996347584485 988 15 15 14820 222300
184	5154380 41538 4115 2089821 1.303240642519 99.903238463005 986 0.099993001384 0.200007447282 98.70000382187 9.8900022952609
185	5195918 28878 4115 2089821 1.303240642519 99.903238463005 986 9 9 8874 79866
186	5224796 41594 4245 2089951 1.305925762602 99.905923583089 987 0.099988445893 0.1000060014 98.699990821871 9.8699982059188
187	5266390 29910 4245 2089951 1.305925762602 99.905923583089 987 15 15 14805 222075
188	5296300 1625 18806 2091876 2 100 99 0 0 0 0
189	5297925 2227 18806 2091876 2 100 99 0.044313 0.052621361635 4.940144361635 0.24655412496932
190	5300152 1625 18806 2091876 2 100 99 0 0 0 0
191	5301777 1625 18807 2091877 2 100 99 1 1 99 99
192	5303402 2227 18807 2091877 2 100 99 0.044313 0.052332401671 4.939855401671 0.24652379753366
193	5305629 1625 18807 2091877 2 100 99 0 0 0 0
194	5307254 1724 18808 2091878 2 100 99 10 10 990 9900
195	5308978 2227 18808 2091878 2 100 99 0.044313 0.052498801947 4.940021801947 0.24654124147487
196	5311205 1625 18808 2091878 2 100 99 0 0 0 0
197	5312830 1724 18809 2091879 2 100 99 11 11 1089 11979
198	5314554 2227 18809 2091879 2 100 99 0.044313 0.052699641829 4.940222641829 0.24656236951791
199	5316781 1625 18809 2091879 2 100 99 0 0 0 0
200	5318406 1724 18810 2091880 2 100 99 12 12 1188 14256
201	5320130 2227 18810 2091880 2 100 99 0.044313 0.052705042115 4.940228042115 0.24656293873334
202	5322357 1625 18810 2091880 2 100 99 0 0 0 0
203	5323982 1724 18811 2091881 2 100 99 13 13 1287 16731
204	5325706 2227 18811 2091881 2 100 99 0.044313 0.052525561782 4.940048561782 0.24654405190952
205	5327933 1625 18811 2091881 2 100 99 0 0 0 0
206	5329558 1724 18812 2091882 2 100 99 14 14 1386 19404
207	5331282 2226 18812 2091882 2 100 99 0.044312 0.05245268186 4.93997468186 0.24653631247831
208	5333508 1625 18812 2091882 2 100 99 0 0 0 0
209	5335133 1724 18813 2091883 2 100 99 15 15 1485 22275
210	5336857 2227 18813 2091883 2 100 99 0.044313 0.052579641843 4.940102641843 0.24654973600534
211	5339084 1625 18813 2091883 2 100 99 0 0 0 0
212	5340709 1625 18814 2091884 2 100 99 2 2 198 396
213	5342334 2226 18814 2091884 2 100 99 0.044313 0.05239272189 4.93991572189 0.24653011457604
214	5344560 1625 18814 2091884 2 100 99 0 0 0 0
215	5346185 1625 18815 2091885 2 100 99 3 3 297 891
216	5347810 2227 18815 2091885 2 100 99 0.044313 0.052646762606 4.940169762606 0.24655679888189
217	5350037 1625 18815 2091885 2 100 99 0 0 0 0
218	5351662 1625 18816 2091886 2 100 99 4 4 396 1584
219	5353287 2226 18816 2091886 2 100 99 0.044313 0.05252652244 4.94004952244 0.24654415282864
220	5355513 1625 18816 2091886 2 100 99 0 0 0 0
221	5357138 1625 18817 2091887 2 100 99 5 5 495 2475
222	5358763 2227 18817 2091887 2 100 99 0.044313 0.052647882694 4.940170882694 0.24655691682116
223	5360990 1625 18817 2091887 2 100 99 0 0 0 0
224	5362615 1625 18818 2091888 2 100 99 6 6 594 3564
225	5364240 2226 18818 2091888 2 100 99 0.044313 0.05252620222 4.94004920222 0.24654411918866
226	5366466 1625 18818 2091888 2 100 99 0 0 0 0
227	5368091 1625 18819 2091889 2 100 99 7 7 693 4851
228	5369716 2227 18819 2091889 2 100 99 0.044313 0.052560482417 4.940083482417 0.24654772158091
229	5371943 1625 18819 2091889 2 100 99 0 0 0 0
230	5373568 1625 18820 2091890 2 100 99 8 8 792 6336
231	5375193 2227 18820 2091890 2 100 99 0.044312 0.052573202219 4.940095202219 0.24654897023556
232	5377420 1625 18820 2091890 2 100 99 0 0 0 0
233	5379045 1625 18821 2091891 2 100 99 9 9 891 8019
234	5380670 2227 18821 2091891 2 100 99 0.044313 0.052486042114 4.940009042114 0.24653990188579
235	5382897 1625 18821 2091891 2 100 99 0 0 0 0

