version 3
run BreakRanksNoGui-801-20240710-17:47:30-276418
attr configname BreakRanksNoGui
attr datetime 20240710-17:47:30
attr datetimef 20240710-174730
attr experiment BreakRanksNoGui
attr inifile omnetpp.ini
attr iterationvars "$nCars=6, $platoonSize=6, $nLanes=1, $ploegH=0.5, $controller=1, $headway=0.1, $leaderHeadway=1.2, $leaderSpeed=130, $breakRanksSafetyDistance=2, $minSpeed=120, $maxSpeed=140, $beaconInterval=0.1, $priority=4, $packetSize=200, $sController=\"CACC\", $0=2, $1=0"
attr iterationvarsd nCars=6/platoonSize=6/nLanes=1/ploegH=0.5/controller=1/headway=0.1/leaderHeadway=1.2/leaderSpeed=130/breakRanksSafetyDistance=2/minSpeed=120/maxSpeed=140/beaconInterval=0.1/priority=4/packetSize=200/sController=CACC/2/0
attr iterationvarsf nCars=6,platoonSize=6,nLanes=1,ploegH=0.5,controller=1,headway=0.1,leaderHeadway=1.2,leaderSpeed=130,breakRanksSafetyDistance=2,minSpeed=120,maxSpeed=140,beaconInterval=0.1,priority=4,packetSize=200,sController=CACC,2,0-
attr measurement "$nCars=6, $platoonSize=6, $nLanes=1, $ploegH=0.5, $controller=1, $headway=0.1, $leaderHeadway=1.2, $leaderSpeed=130, $breakRanksSafetyDistance=2, $minSpeed=120, $maxSpeed=140, $beaconInterval=0.1, $priority=4, $packetSize=200, $sController=\"CACC\", $0=2, $1=0"
attr network Highway
attr processid 276418
attr repetition 1
attr replication #1
attr resultdir results
attr runnumber 801
attr seedset 1
itervar beaconInterval 0.1
itervar breakRanksSafetyDistance 2
itervar controller 1
itervar headway 0.1
itervar leaderHeadway 1.2
itervar leaderSpeed 130
itervar maxSpeed 140
itervar minSpeed 120
itervar nCars 6
itervar nLanes 1
itervar packetSize 200
itervar platoonSize 6
itervar ploegH 0.5
itervar priority 4
itervar sController "\"CACC\""
config image-path ../../../veins/images
config repeat 10
config extends BreakRanks
config *.manager.command "\"sumo\""
config *.manager.ignoreGuiCommands true
config output-vector-file "results/BreakRanks_1_0.1_130_2_6 /result_1.vec"
config output-scalar-file "results/BreakRanks_1_0.1_130_2_6 /result_1.sca"
config extends Platooning
config *.node[*].scenario_type "\"BreakRanksScenario\""
config *.manager.command "\"sumo-gui\""
config *.node[*].scenario_type "\"SimpleScenario\""
config cmdenv-express-mode true
config cmdenv-autoflush true
config cmdenv-status-frequency 15s
config num-rngs 6
config network Highway
config debug-on-errors true
config print-undisposed true
config *.playgroundSizeX 65000m
config *.playgroundSizeY 25000m
config *.playgroundSizeZ 50m
config sim-time-limit "100 s"
config *.annotations.draw false
config *.obstacles.debug false
config *.world.useTorus false
config *.world.use2D false
config *.manager.updateInterval 0.01s
config *.manager.host "\"localhost\""
config *.manager.moduleType "\"org.car2x.plexe.PlatoonCar\""
config *.manager.moduleName "\"node\""
config *.manager.moduleDisplayString "\"\""
config *.manager.autoShutdown true
config *.manager.margin 25
config *.connectionManager.sendDirect true
config *.connectionManager.maxInterfDist 2600m
config *.connectionManager.drawMaxIntfDist false
config *.**.nic.mac1609_4.useServiceChannel false
config *.**.nic.mac1609_4.txPower 100mW
config *.**.nic.mac1609_4.bitrate 6Mbps
config *.**.nic.mac1609_4.useAcks true
config *.**.nic.mac1609_4.ackErrorRate 0.0
config *.**.nic.mac1609_4.frameErrorRate 0.0
config *.**.nic.phy80211p.minPowerLevel -94dBm
config *.**.nic.phy80211p.maxTXPower 100mW
config *.**.nic.phy80211p.useNoiseFloor true
config *.**.nic.phy80211p.noiseFloor -95dBm
config *.**.nic.phy80211p.decider "xmldoc(\"config.xml\")"
config *.**.nic.phy80211p.analogueModels "xmldoc(\"config.xml\")"
config *.**.nic.phy80211p.usePropagationDelay true
config *.node[*].mobility.x 0
config *.node[*].mobility.y 0
config *.node[*].mobility.z 1.895
config seed-set 1
config **.seed 1
config *.node[*].prot.rng-0 2
config *.node[*].appl.rng-0 3
config *.node[*].scenario.rng-0 4
config **.traffic.rng-0 5
config *.manager.configFile "\"./sumocfg/freeway.sumo.cfg\""
config *.manager.launchConfig "xmldoc(\"./sumocfg/freeway.launchd.xml\")"
config **.numberOfCars 6
config **.numberOfCarsPerPlatoon 6
config **.numberOfLanes 1
config *.node[*].helper_type "\"PositionHelper\""
config *.node[*].scenario.caccC1 0.5
config *.node[*].scenario.caccXi 1
config *.node[*].scenario.caccOmegaN "0.2 Hz"
config *.node[*].scenario.caccSpacing "2 m"
config *.node[*].scenario.engineTau "0.5 s"
config *.node[*].scenario.ploegH 0.5s
config *.node[*].scenario.ploegKp 0.2
config *.node[*].scenario.ploegKd 0.7
config *.node[*].scenario.useRealisticEngine false
config *.node[*].scenario.useControllerAcceleration true
config *.node[*].scenario.nLanes 1
config **.numericController 1
config **.headway 0.1s
config *.node[*].scenario.accHeadway 0.1s
config *.node[*].scenario.leaderHeadway 1.2s
config *.node[*].scenario.leaderSpeed 130kmph
config *.node[*].appl_type "\"SimplePlatooningApp\""
config *.node[*].appl.*.scalar-recording true
config *.node[*].appl.*.vector-recording true
config *.node[0].appl.breakRanksSafetyDistance 2m
config *.node[*].appl.minSpeed 120kmph
config *.node[*].appl.maxSpeed 140kmph
config *.node[*].protocol_type "\"SimplePlatooningBeaconing\""
config *.node[*].prot.*.scalar-recording true
config *.node[*].prot.*.vector-recording true
config *.node[*].prot.beaconingInterval 0.1s
config *.node[*].prot.priority 4
config *.node[*].prot.packetSize 200
config **.traffic_type "\"PlatoonsTrafficManager\""
config **.traffic.platoonInsertTime "1 s"
config **.traffic.platoonInsertSpeed 130kmph
config **.traffic.nCars 6
config **.traffic.platoonSize 6
config **.traffic.nLanes 1
config **.traffic.platooningVType "\"vtypeauto\""
config **.traffic.controller "\"CACC\""
config **.traffic.platoonInsertDistance 2m
config **.traffic.platoonInsertHeadway 0s
config **.traffic.platoonLeaderHeadway 1.2s
config **.scalar-recording false
config **.vector-recording false

vector 0 Highway.node[0].appl distance ETV
vector 1 Highway.node[0].appl relativeSpeed ETV
vector 2 Highway.node[0].appl nodeId ETV
vector 3 Highway.node[0].appl acceleration ETV
vector 4 Highway.node[0].appl controllerAcceleration ETV
vector 5 Highway.node[0].appl speed ETV
vector 6 Highway.node[0].appl posx ETV
vector 7 Highway.node[0].appl posy ETV
vector 8 Highway.node[1].appl distance ETV
vector 9 Highway.node[1].appl relativeSpeed ETV
vector 10 Highway.node[1].appl nodeId ETV
vector 11 Highway.node[1].appl acceleration ETV
vector 12 Highway.node[1].appl controllerAcceleration ETV
vector 13 Highway.node[1].appl speed ETV
vector 14 Highway.node[1].appl posx ETV
vector 15 Highway.node[1].appl posy ETV
vector 16 Highway.node[2].appl distance ETV
vector 17 Highway.node[2].appl relativeSpeed ETV
vector 18 Highway.node[2].appl nodeId ETV
vector 19 Highway.node[2].appl acceleration ETV
vector 20 Highway.node[2].appl controllerAcceleration ETV
vector 21 Highway.node[2].appl speed ETV
vector 22 Highway.node[2].appl posx ETV
vector 23 Highway.node[2].appl posy ETV
vector 24 Highway.node[3].appl distance ETV
vector 25 Highway.node[3].appl relativeSpeed ETV
vector 26 Highway.node[3].appl nodeId ETV
vector 27 Highway.node[3].appl acceleration ETV
vector 28 Highway.node[3].appl controllerAcceleration ETV
vector 29 Highway.node[3].appl speed ETV
vector 30 Highway.node[3].appl posx ETV
vector 31 Highway.node[3].appl posy ETV
vector 32 Highway.node[4].appl distance ETV
vector 33 Highway.node[4].appl relativeSpeed ETV
vector 34 Highway.node[4].appl nodeId ETV
vector 35 Highway.node[4].appl acceleration ETV
vector 36 Highway.node[4].appl controllerAcceleration ETV
vector 37 Highway.node[4].appl speed ETV
vector 38 Highway.node[4].appl posx ETV
vector 39 Highway.node[4].appl posy ETV
vector 40 Highway.node[5].appl distance ETV
vector 41 Highway.node[5].appl relativeSpeed ETV
vector 42 Highway.node[5].appl nodeId ETV
vector 43 Highway.node[5].appl acceleration ETV
vector 44 Highway.node[5].appl controllerAcceleration ETV
vector 45 Highway.node[5].appl speed ETV
vector 46 Highway.node[5].appl posx ETV
vector 47 Highway.node[5].appl posy ETV
vector 48 Highway.node[2].prot frontDelay ETV
vector 49 Highway.node[2].prot frontDelayId ETV
vector 50 Highway.node[4].prot frontDelay ETV
vector 51 Highway.node[4].prot frontDelayId ETV
vector 52 Highway.node[5].prot frontDelay ETV
vector 53 Highway.node[5].prot frontDelayId ETV
vector 54 Highway.node[1].prot leaderDelay ETV
vector 55 Highway.node[1].prot leaderDelayId ETV
vector 56 Highway.node[1].prot frontDelay ETV
vector 57 Highway.node[1].prot frontDelayId ETV
vector 58 Highway.node[2].prot leaderDelay ETV
vector 59 Highway.node[2].prot leaderDelayId ETV
vector 60 Highway.node[3].prot leaderDelay ETV
vector 61 Highway.node[3].prot leaderDelayId ETV
vector 62 Highway.node[4].prot leaderDelay ETV
vector 63 Highway.node[4].prot leaderDelayId ETV
vector 64 Highway.node[5].prot leaderDelay ETV
vector 65 Highway.node[5].prot leaderDelayId ETV
vector 66 Highway.node[3].prot frontDelay ETV
vector 67 Highway.node[3].prot frontDelayId ETV
vector 68 Highway.node[0].prot nodeId ETV
vector 69 Highway.node[0].prot busyTime ETV
vector 70 Highway.node[0].prot collisions ETV
vector 71 Highway.node[1].prot nodeId ETV
vector 72 Highway.node[1].prot busyTime ETV
vector 73 Highway.node[1].prot collisions ETV
vector 74 Highway.node[2].prot nodeId ETV
vector 75 Highway.node[2].prot busyTime ETV
vector 76 Highway.node[2].prot collisions ETV
vector 77 Highway.node[3].prot nodeId ETV
vector 78 Highway.node[3].prot busyTime ETV
vector 79 Highway.node[3].prot collisions ETV
vector 80 Highway.node[4].prot nodeId ETV
vector 81 Highway.node[4].prot busyTime ETV
vector 82 Highway.node[4].prot collisions ETV
vector 83 Highway.node[5].prot nodeId ETV
vector 84 Highway.node[5].prot busyTime ETV
vector 85 Highway.node[5].prot collisions ETV
0	113	1.11	-1
0	429	1.21	-1
0	745	1.31	-1
0	1061	1.41	-1
0	1377	1.51	-1
0	1693	1.61	-1
0	2009	1.71	-1
0	2325	1.81	-1
0	2641	1.91	-1
0	2963	2.01	-1
0	3279	2.11	-1
0	3595	2.21	-1
0	3911	2.31	-1
0	4227	2.41	-1
0	4543	2.51	-1
0	4859	2.61	-1
0	5175	2.71	-1
0	5491	2.81	-1
0	5807	2.91	-1
0	6129	3.01	-1
0	6445	3.11	-1
0	6761	3.21	-1
0	7077	3.31	-1
0	7393	3.41	-1
0	7709	3.51	-1
0	8025	3.61	-1
0	8341	3.71	-1
0	8657	3.81	-1
0	8973	3.91	-1
0	9295	4.01	-1
0	9611	4.11	-1
0	9927	4.21	-1
0	10243	4.31	-1
0	10559	4.41	-1
0	10875	4.51	-1
0	11191	4.61	-1
0	11507	4.71	-1
0	11823	4.81	-1
0	12139	4.91	-1
0	12461	5.01	-1
0	12777	5.11	-1
0	13093	5.21	-1
0	13409	5.31	-1
0	13725	5.41	-1
0	14041	5.51	-1
0	14357	5.61	-1
0	14673	5.71	-1
0	14989	5.81	-1
0	15305	5.91	-1
0	15627	6.01	-1
0	15943	6.11	-1
0	16259	6.21	-1
0	16575	6.31	-1
0	16891	6.41	-1
0	17207	6.51	-1
0	17523	6.61	-1
0	17839	6.71	-1
0	18155	6.81	-1
0	18471	6.91	-1
0	18793	7.01	-1
0	19109	7.11	-1
0	19425	7.21	-1
0	19741	7.31	-1
0	20057	7.41	-1
0	20373	7.51	-1
0	20689	7.61	-1
0	21005	7.71	-1
0	21321	7.81	-1
0	21637	7.91	-1
0	21959	8.01	-1
0	22275	8.11	-1
0	22591	8.21	-1
0	22907	8.31	-1
0	23223	8.41	-1
0	23539	8.51	-1
0	23855	8.61	-1
0	24171	8.71	-1
0	24487	8.81	-1
0	24803	8.91	-1
0	25125	9.01	-1
0	25441	9.11	-1
0	25757	9.21	-1
0	26073	9.31	-1
0	26389	9.41	-1
0	26705	9.51	-1
0	27021	9.61	-1
0	27337	9.71	-1
0	27653	9.81	-1
0	27969	9.91	-1
0	29349	10.01	-1
0	29665	10.11	-1
0	29981	10.21	-1
0	30297	10.31	-1
0	30613	10.41	-1
0	30929	10.51	-1
0	31245	10.61	-1
0	31561	10.71	-1
0	31877	10.81	-1
0	32193	10.91	-1
0	32515	11.01	-1
0	32831	11.11	-1
0	33147	11.21	-1
0	33463	11.31	-1
0	33779	11.41	-1
0	34095	11.51	-1
0	34411	11.61	-1
0	34727	11.71	-1
0	35043	11.81	-1
0	35359	11.91	-1
0	35681	12.01	-1
0	35997	12.11	-1
0	36313	12.21	-1
0	36629	12.31	-1
0	36945	12.41	-1
0	37261	12.51	-1
0	37577	12.61	-1
0	37893	12.71	-1
0	38209	12.81	-1
0	38525	12.91	-1
0	38847	13.01	-1
0	39163	13.11	-1
0	39479	13.21	-1
0	39795	13.31	-1
0	40111	13.41	-1
0	40427	13.51	-1
0	40743	13.61	-1
0	41059	13.71	-1
0	41375	13.81	-1
0	41691	13.91	-1
0	42013	14.01	-1
0	42329	14.11	-1
0	42645	14.21	-1
0	42961	14.31	-1
0	43277	14.41	-1
0	43593	14.51	-1
0	43909	14.61	-1
0	44225	14.71	-1
0	44541	14.81	-1
0	44857	14.91	-1
0	45179	15.01	-1
0	45495	15.11	-1
0	45811	15.21	-1
0	46127	15.31	-1
0	46443	15.41	-1
0	46759	15.51	-1
0	47075	15.61	-1
0	47391	15.71	-1
0	47707	15.81	-1
0	48023	15.91	-1
0	48345	16.01	-1
0	48661	16.11	-1
0	48977	16.21	-1
0	49293	16.31	-1
0	49609	16.41	-1
0	49925	16.51	-1
0	50241	16.61	-1
0	50557	16.71	-1
0	50873	16.81	-1
0	51189	16.91	-1
0	51511	17.01	-1
0	51827	17.11	-1
0	52143	17.21	-1
0	52459	17.31	-1
0	52775	17.41	-1
0	53091	17.51	-1
0	53407	17.61	-1
0	53723	17.71	-1
0	54039	17.81	-1
0	54355	17.91	-1
0	54677	18.01	-1
0	54993	18.11	-1
0	55309	18.21	-1
0	55625	18.31	-1
0	55941	18.41	-1
0	56257	18.51	-1
0	56573	18.61	-1
0	56889	18.71	-1
0	57205	18.81	-1
0	57521	18.91	-1
0	57843	19.01	-1
0	58159	19.11	-1
0	58475	19.21	-1
0	58791	19.31	-1
0	59107	19.41	-1
0	59423	19.51	-1
0	59739	19.61	-1
0	60055	19.71	-1
0	60371	19.81	-1
0	60687	19.91	-1
0	61009	20.01	-1
0	61325	20.11	-1
0	61641	20.21	-1
0	61957	20.31	-1
0	62273	20.41	-1
0	62589	20.51	-1
0	62905	20.61	-1
0	63221	20.71	-1
0	63537	20.81	-1
0	63853	20.91	-1
0	64175	21.01	-1
0	64491	21.11	-1
0	64807	21.21	-1
0	65123	21.31	-1
0	65439	21.41	-1
0	65755	21.51	-1
0	66071	21.61	-1
0	66387	21.71	-1
0	66703	21.81	-1
0	67019	21.91	-1
0	67341	22.01	-1
0	67657	22.11	-1
0	67973	22.21	-1
0	68289	22.31	-1
0	68605	22.41	-1
0	68921	22.51	-1
0	69237	22.61	-1
0	69553	22.71	-1
0	69869	22.81	-1
0	70185	22.91	-1
0	70507	23.01	-1
0	70823	23.11	-1
0	71139	23.21	-1
0	71455	23.31	-1
0	71771	23.41	-1
0	72087	23.51	-1
0	72403	23.61	-1
0	72719	23.71	-1
0	73035	23.81	-1
0	73351	23.91	-1
0	73673	24.01	-1
0	73989	24.11	-1
0	74305	24.21	-1
0	74621	24.31	-1
0	74937	24.41	-1
0	75253	24.51	-1
0	75569	24.61	-1
0	75885	24.71	-1
0	76201	24.81	-1
0	76517	24.91	-1
0	76839	25.01	-1
0	77155	25.11	-1
0	77471	25.21	-1
0	77787	25.31	-1
0	78103	25.41	-1
0	78419	25.51	-1
0	78735	25.61	-1
0	79051	25.71	-1
0	79367	25.81	-1
0	79683	25.91	-1
0	80005	26.01	-1
0	80321	26.11	-1
0	80637	26.21	-1
0	80953	26.31	-1
0	81269	26.41	-1
0	81585	26.51	-1
0	81901	26.61	-1
0	82217	26.71	-1
0	82533	26.81	-1
0	82849	26.91	-1
0	83171	27.01	-1
0	83487	27.11	-1
0	83803	27.21	-1
0	84119	27.31	-1
0	84435	27.41	-1
0	84751	27.51	-1
0	85067	27.61	-1
0	85383	27.71	-1
0	85699	27.81	-1
0	86015	27.91	-1
0	86337	28.01	-1
0	86653	28.11	-1
0	86969	28.21	-1
0	87285	28.31	-1
0	87601	28.41	-1
0	87917	28.51	-1
0	88233	28.61	-1
0	88549	28.71	-1
0	88865	28.81	-1
0	89181	28.91	-1
0	89503	29.01	-1
0	89819	29.11	-1
0	90135	29.21	-1
0	90451	29.31	-1
0	90767	29.41	-1
0	91083	29.51	-1
0	91399	29.61	-1
0	91715	29.71	-1
0	92031	29.81	-1
0	92347	29.91	-1
0	92669	30.01	-1
0	92985	30.11	-1
0	93301	30.21	-1
0	93617	30.31	-1
0	93933	30.41	-1
0	94249	30.51	-1
0	94565	30.61	-1
0	94881	30.71	-1
0	95197	30.81	-1
0	95513	30.91	-1
0	95835	31.01	-1
0	96151	31.11	-1
0	96467	31.21	-1
0	96783	31.31	-1
0	97099	31.41	-1
0	97415	31.51	-1
0	97731	31.61	-1
0	98047	31.71	-1
0	98363	31.81	-1
0	98679	31.91	-1
0	99001	32.01	-1
0	99317	32.11	-1
0	99633	32.21	-1
0	99949	32.31	-1
0	100265	32.41	-1
0	100581	32.51	-1
0	100897	32.61	-1
0	101213	32.71	-1
0	101529	32.81	-1
0	101845	32.91	-1
0	102167	33.01	-1
0	102483	33.11	-1
0	102799	33.21	-1
0	103115	33.31	-1
0	103431	33.41	-1
0	103747	33.51	-1
0	104063	33.61	-1
0	104379	33.71	-1
0	104695	33.81	-1
0	105011	33.91	-1
0	105333	34.01	-1
0	105649	34.11	-1
0	105965	34.21	-1
0	106281	34.31	-1
0	106597	34.41	-1
0	106913	34.51	-1
0	107229	34.61	-1
0	107545	34.71	-1
0	107861	34.81	-1
0	108177	34.91	-1
0	108499	35.01	-1
0	108815	35.11	-1
0	109131	35.21	-1
0	109447	35.31	-1
0	109763	35.41	-1
0	110079	35.51	-1
0	110395	35.61	-1
0	110711	35.71	-1
0	111027	35.81	-1
0	111343	35.91	-1
0	111665	36.01	-1
0	111981	36.11	-1
0	112297	36.21	-1
0	112613	36.31	-1
0	112929	36.41	-1
0	113245	36.51	-1
0	113561	36.61	-1
0	113877	36.71	-1
0	114193	36.81	-1
0	114509	36.91	-1
0	114831	37.01	-1
0	115147	37.11	-1
0	115463	37.21	-1
0	115779	37.31	-1
0	116095	37.41	-1
0	116411	37.51	-1
0	116727	37.61	-1
0	117043	37.71	-1
0	117359	37.81	-1
0	117675	37.91	-1
0	117997	38.01	-1
0	118313	38.11	-1
0	118629	38.21	-1
0	118945	38.31	-1
0	119261	38.41	-1
0	119577	38.51	-1
0	119893	38.61	-1
0	120209	38.71	-1
0	120525	38.81	-1
0	120841	38.91	-1
0	121163	39.01	-1
0	121479	39.11	-1
0	121795	39.21	-1
0	122111	39.31	-1
0	122427	39.41	-1
0	122743	39.51	-1
0	123059	39.61	-1
0	123375	39.71	-1
0	123691	39.81	-1
0	124007	39.91	-1
0	124329	40.01	-1
0	124645	40.11	-1
0	124961	40.21	-1
0	125277	40.31	-1
0	125593	40.41	-1
0	125909	40.51	-1
0	126225	40.61	-1
0	126541	40.71	-1
0	126857	40.81	-1
0	127173	40.91	-1
0	127495	41.01	-1
0	127811	41.11	-1
0	128127	41.21	-1
0	128443	41.31	-1
0	128759	41.41	-1
0	129075	41.51	-1
0	129391	41.61	-1
0	129707	41.71	-1
0	130023	41.81	-1
0	130339	41.91	-1
0	130661	42.01	-1
0	130977	42.11	-1
0	131293	42.21	-1
0	131609	42.31	-1
0	131925	42.41	-1
0	132241	42.51	-1
0	132557	42.61	-1
0	132873	42.71	-1
0	133189	42.81	-1
0	133505	42.91	-1
0	133827	43.01	-1
0	134143	43.11	-1
0	134459	43.21	-1
0	134775	43.31	-1
0	135091	43.41	-1
0	135407	43.51	-1
0	135723	43.61	-1
0	136039	43.71	-1
0	136355	43.81	-1
0	136671	43.91	-1
0	136993	44.01	-1
0	137309	44.11	-1
0	137625	44.21	-1
0	137941	44.31	-1
0	138257	44.41	-1
0	138573	44.51	-1
0	138889	44.61	-1
0	139205	44.71	-1
0	139521	44.81	-1
0	139837	44.91	-1
0	140159	45.01	-1
0	140475	45.11	-1
0	140791	45.21	-1
0	141107	45.31	-1
0	141423	45.41	-1
0	141739	45.51	-1
0	142055	45.61	-1
0	142371	45.71	-1
0	142687	45.81	-1
0	143003	45.91	-1
0	143325	46.01	-1
0	143641	46.11	-1
0	143957	46.21	-1
0	144273	46.31	-1
0	144589	46.41	-1
0	144905	46.51	-1
0	145221	46.61	-1
0	145537	46.71	-1
0	145853	46.81	-1
0	146169	46.91	-1
0	146491	47.01	-1
0	146807	47.11	-1
0	147123	47.21	-1
0	147439	47.31	-1
0	147755	47.41	-1
0	148071	47.51	-1
0	148387	47.61	-1
0	148703	47.71	-1
0	149019	47.81	-1
0	149335	47.91	-1
0	149657	48.01	-1
0	149973	48.11	-1
0	150289	48.21	-1
0	150605	48.31	-1
0	150921	48.41	-1
0	151237	48.51	-1
0	151553	48.61	-1
0	151869	48.71	-1
0	152185	48.81	-1
0	152501	48.91	-1
0	152823	49.01	-1
0	153139	49.11	-1
0	153455	49.21	-1
0	153771	49.31	-1
0	154087	49.41	-1
0	154403	49.51	-1
0	154719	49.61	-1
0	155035	49.71	-1
0	155351	49.81	-1
0	155667	49.91	-1
0	155989	50.01	-1
0	156305	50.11	-1
0	156621	50.21	-1
0	156937	50.31	-1
0	157253	50.41	-1
0	157569	50.51	-1
0	157885	50.61	-1
0	158201	50.71	-1
0	158517	50.81	-1
0	158833	50.91	-1
0	159155	51.01	-1
0	159471	51.11	-1
0	159787	51.21	-1
0	160103	51.31	-1
0	160419	51.41	-1
0	160735	51.51	-1
0	161051	51.61	-1
0	161367	51.71	-1
0	161683	51.81	-1
0	161999	51.91	-1
0	162321	52.01	-1
0	162637	52.11	-1
0	162953	52.21	-1
0	163269	52.31	-1
0	163585	52.41	-1
0	163901	52.51	-1
0	164217	52.61	-1
0	164533	52.71	-1
0	164849	52.81	-1
0	165165	52.91	-1
0	165487	53.01	-1
0	165803	53.11	-1
0	166119	53.21	-1
0	166435	53.31	-1
0	166751	53.41	-1
0	167067	53.51	-1
0	167383	53.61	-1
0	167699	53.71	-1
0	168015	53.81	-1
0	168331	53.91	-1
0	168653	54.01	-1
0	168969	54.11	-1
0	169285	54.21	-1
0	169601	54.31	-1
0	169917	54.41	-1
0	170233	54.51	-1
0	170549	54.61	-1
0	170865	54.71	-1
0	171181	54.81	-1
0	171497	54.91	-1
0	171819	55.01	-1
0	172135	55.11	-1
0	172451	55.21	-1
0	172767	55.31	-1
0	173083	55.41	-1
0	173399	55.51	-1
0	173715	55.61	-1
0	174031	55.71	-1
0	174347	55.81	-1
0	174663	55.91	-1
0	174985	56.01	-1
0	175301	56.11	-1
0	175617	56.21	-1
0	175933	56.31	-1
0	176249	56.41	-1
0	176565	56.51	-1
0	176881	56.61	-1
0	177197	56.71	-1
0	177513	56.81	-1
0	177829	56.91	-1
0	178151	57.01	-1
0	178467	57.11	-1
0	178783	57.21	-1
0	179099	57.31	-1
0	179415	57.41	-1
0	179731	57.51	-1
0	180047	57.61	-1
0	180363	57.71	-1
0	180679	57.81	-1
0	180995	57.91	-1
0	181317	58.01	-1
0	181633	58.11	-1
0	181949	58.21	-1
0	182265	58.31	-1
0	182581	58.41	-1
0	182897	58.51	-1
0	183213	58.61	-1
0	183529	58.71	-1
0	183845	58.81	-1
0	184161	58.91	-1
0	184483	59.01	-1
0	184799	59.11	-1
0	185115	59.21	-1
0	185431	59.31	-1
0	185747	59.41	-1
0	186063	59.51	-1
0	186379	59.61	-1
0	186695	59.71	-1
0	187011	59.81	-1
0	187327	59.91	-1
0	187649	60.01	-1
0	187965	60.11	-1
0	188281	60.21	-1
0	188597	60.31	-1
0	188913	60.41	-1
0	189229	60.51	-1
0	189545	60.61	-1
0	189861	60.71	-1
0	190177	60.81	-1
0	190493	60.91	-1
0	190815	61.01	-1
0	191131	61.11	-1
0	191447	61.21	-1
0	191763	61.31	-1
0	192079	61.41	-1
0	192395	61.51	-1
0	192711	61.61	-1
0	193027	61.71	-1
0	193343	61.81	-1
0	193659	61.91	-1
0	193981	62.01	-1
0	194297	62.11	-1
0	194613	62.21	-1
0	194929	62.31	-1
0	195245	62.41	-1
0	195561	62.51	-1
0	195877	62.61	-1
0	196193	62.71	-1
0	196509	62.81	-1
0	196825	62.91	-1
0	197147	63.01	-1
0	197463	63.11	-1
0	197779	63.21	-1
0	198095	63.31	-1
0	198411	63.41	-1
0	198727	63.51	-1
0	199043	63.61	-1
0	199359	63.71	-1
0	199675	63.81	-1
0	199991	63.91	-1
0	200313	64.01	-1
0	200629	64.11	-1
0	200945	64.21	-1
0	201261	64.31	-1
0	201577	64.41	-1
0	201893	64.51	-1
0	202209	64.61	-1
0	202525	64.71	-1
0	202841	64.81	-1
0	203157	64.91	-1
0	203479	65.01	-1
0	203795	65.11	-1
0	204111	65.21	-1
0	204427	65.31	-1
0	204743	65.41	-1
0	205059	65.51	-1
0	205375	65.61	-1
0	205691	65.71	-1
0	206007	65.81	-1
0	206323	65.91	-1
0	206645	66.01	-1
0	206961	66.11	-1
0	207277	66.21	-1
0	207593	66.31	-1
0	207909	66.41	-1
0	208225	66.51	-1
0	208541	66.61	-1
0	208857	66.71	-1
0	209173	66.81	-1
0	209489	66.91	-1
0	209811	67.01	-1
0	210127	67.11	-1
0	210443	67.21	-1
0	210759	67.31	-1
0	211075	67.41	-1
0	211391	67.51	-1
0	211707	67.61	-1
0	212023	67.71	-1
0	212339	67.81	-1
0	212655	67.91	-1
0	212977	68.01	-1
0	213293	68.11	-1
0	213609	68.21	-1
0	213925	68.31	-1
0	214241	68.41	-1
0	214557	68.51	-1
0	214873	68.61	-1
0	215189	68.71	-1
0	215505	68.81	-1
0	215821	68.91	-1
0	216143	69.01	-1
0	216459	69.11	-1
0	216775	69.21	-1
0	217091	69.31	-1
0	217407	69.41	-1
0	217723	69.51	-1
0	218039	69.61	-1
0	218355	69.71	-1
0	218671	69.81	-1
0	218987	69.91	-1
0	219309	70.01	-1
0	219625	70.11	-1
0	219941	70.21	-1
0	220257	70.31	-1
0	220573	70.41	-1
0	220889	70.51	-1
0	221205	70.61	-1
0	221521	70.71	-1
0	221837	70.81	-1
0	222153	70.91	-1
0	222475	71.01	-1
0	222791	71.11	-1
0	223107	71.21	-1
0	223423	71.31	-1
0	223739	71.41	-1
0	224055	71.51	-1
0	224371	71.61	-1
0	224687	71.71	-1
0	225003	71.81	-1
0	225319	71.91	-1
0	225641	72.01	-1
0	225957	72.11	-1
0	226273	72.21	-1
0	226589	72.31	-1
0	226905	72.41	-1
0	227221	72.51	-1
0	227537	72.61	-1
0	227853	72.71	-1
0	228169	72.81	-1
0	228485	72.91	-1
0	228807	73.01	-1
0	229123	73.11	-1
0	229439	73.21	-1
0	229755	73.31	-1
0	230071	73.41	-1
0	230387	73.51	-1
0	230703	73.61	-1
0	231019	73.71	-1
0	231335	73.81	-1
0	231651	73.91	-1
0	231973	74.01	-1
0	232289	74.11	-1
0	232605	74.21	-1
0	232921	74.31	-1
0	233237	74.41	-1
0	233553	74.51	-1
0	233869	74.61	-1
0	234185	74.71	-1
0	234501	74.81	-1
0	234817	74.91	-1
0	235139	75.01	-1
0	235455	75.11	-1
0	235771	75.21	-1
0	236087	75.31	-1
0	236403	75.41	-1
0	236719	75.51	-1
0	237035	75.61	-1
0	237351	75.71	-1
0	237667	75.81	-1
0	237983	75.91	-1
0	238305	76.01	-1
0	238621	76.11	-1
0	238937	76.21	-1
0	239253	76.31	-1
0	239569	76.41	-1
0	239885	76.51	-1
0	240201	76.61	-1
0	240517	76.71	-1
0	240833	76.81	-1
0	241149	76.91	-1
0	241471	77.01	-1
0	241787	77.11	-1
0	242103	77.21	-1
0	242419	77.31	-1
0	242735	77.41	-1
0	243051	77.51	-1
0	243367	77.61	-1
0	243683	77.71	-1
0	243999	77.81	-1
0	244315	77.91	-1
0	244637	78.01	-1
0	244953	78.11	-1
0	245269	78.21	-1
0	245585	78.31	-1
0	245901	78.41	-1
0	246217	78.51	-1
0	246533	78.61	-1
0	246849	78.71	-1
0	247165	78.81	-1
0	247481	78.91	-1
0	247803	79.01	-1
0	248119	79.11	-1
0	248435	79.21	-1
0	248751	79.31	-1
0	249067	79.41	-1
0	249383	79.51	-1
0	249699	79.61	-1
0	250015	79.71	-1
0	250331	79.81	-1
0	250647	79.91	-1
0	250969	80.01	-1
0	251285	80.11	-1
0	251601	80.21	-1
0	251917	80.31	-1
0	252233	80.41	-1
0	252549	80.51	-1
0	252865	80.61	-1
0	253181	80.71	-1
0	253497	80.81	-1
0	253813	80.91	-1
0	254135	81.01	-1
0	254451	81.11	-1
0	254767	81.21	-1
0	255083	81.31	-1
0	255399	81.41	-1
0	255715	81.51	-1
0	256031	81.61	-1
0	256347	81.71	-1
0	256663	81.81	-1
0	256979	81.91	-1
0	257301	82.01	-1
0	257617	82.11	-1
0	257933	82.21	-1
0	258249	82.31	-1
0	258565	82.41	-1
0	258881	82.51	-1
0	259197	82.61	-1
0	259513	82.71	-1
0	259829	82.81	-1
0	260145	82.91	-1
0	260467	83.01	-1
0	260783	83.11	-1
0	261099	83.21	-1
0	261415	83.31	-1
0	261731	83.41	-1
0	262047	83.51	-1
0	262363	83.61	-1
0	262679	83.71	-1
0	262995	83.81	-1
0	263311	83.91	-1
0	263633	84.01	-1
0	263949	84.11	-1
0	264265	84.21	-1
0	264581	84.31	-1
0	264897	84.41	-1
0	265213	84.51	-1
0	265529	84.61	-1
0	265845	84.71	-1
0	266161	84.81	-1
0	266477	84.91	-1
0	266799	85.01	-1
0	267115	85.11	-1
0	267431	85.21	-1
0	267747	85.31	-1
0	268063	85.41	-1
0	268379	85.51	-1
0	268695	85.61	-1
0	269011	85.71	-1
0	269327	85.81	-1
0	269643	85.91	-1
0	269965	86.01	-1
0	270281	86.11	-1
0	270597	86.21	-1
0	270913	86.31	-1
0	271229	86.41	-1
0	271545	86.51	-1
0	271861	86.61	-1
0	272177	86.71	-1
0	272493	86.81	-1
0	272809	86.91	-1
0	273131	87.01	-1
0	273447	87.11	-1
0	273763	87.21	-1
0	274079	87.31	-1
0	274395	87.41	-1
0	274711	87.51	-1
0	275027	87.61	-1
0	275343	87.71	-1
0	275659	87.81	-1
0	275975	87.91	-1
0	276297	88.01	-1
0	276613	88.11	-1
0	276929	88.21	-1
0	277245	88.31	-1
0	277561	88.41	-1
0	277877	88.51	-1
0	278193	88.61	-1
0	278509	88.71	-1
0	278825	88.81	-1
0	279141	88.91	-1
0	279463	89.01	-1
0	279779	89.11	-1
0	280095	89.21	-1
0	280411	89.31	-1
0	280727	89.41	-1
0	281043	89.51	-1
0	281359	89.61	-1
0	281675	89.71	-1
0	281991	89.81	-1
0	282307	89.91	-1
0	282629	90.01	-1
0	282945	90.11	-1
0	283261	90.21	-1
0	283577	90.31	-1
0	283893	90.41	-1
0	284209	90.51	-1
0	284525	90.61	-1
0	284841	90.71	-1
0	285157	90.81	-1
0	285473	90.91	-1
0	285795	91.01	-1
0	286111	91.11	-1
0	286427	91.21	-1
0	286743	91.31	-1
0	287059	91.41	-1
0	287375	91.51	-1
0	287691	91.61	-1
0	288007	91.71	-1
0	288323	91.81	-1
0	288639	91.91	-1
0	288961	92.01	-1
0	289277	92.11	-1
0	289593	92.21	-1
0	289909	92.31	-1
0	290225	92.41	-1
0	290541	92.51	-1
0	290857	92.61	-1
0	291173	92.71	-1
0	291489	92.81	-1
0	291805	92.91	-1
0	292127	93.01	-1
0	292443	93.11	-1
0	292759	93.21	-1
0	293075	93.31	-1
0	293391	93.41	-1
0	293707	93.51	-1
0	294023	93.61	-1
0	294339	93.71	-1
0	294655	93.81	-1
0	294971	93.91	-1
0	295293	94.01	-1
0	295609	94.11	-1
0	295925	94.21	-1
0	296241	94.31	-1
0	296557	94.41	-1
0	296873	94.51	-1
0	297189	94.61	-1
0	297505	94.71	-1
0	297821	94.81	-1
0	298137	94.91	-1
0	298459	95.01	-1
0	298775	95.11	-1
0	299091	95.21	-1
0	299407	95.31	-1
0	299723	95.41	-1
0	300039	95.51	-1
0	300355	95.61	-1
0	300671	95.71	-1
0	300987	95.81	-1
0	301303	95.91	-1
0	301625	96.01	-1
0	301941	96.11	-1
0	302257	96.21	-1
0	302573	96.31	-1
0	302889	96.41	-1
0	303205	96.51	-1
0	303521	96.61	-1
0	303837	96.71	-1
0	304153	96.81	-1
0	304469	96.91	-1
0	304791	97.01	-1
0	305107	97.11	-1
0	305423	97.21	-1
0	305739	97.31	-1
0	306055	97.41	-1
0	306371	97.51	-1
0	306687	97.61	-1
0	307003	97.71	-1
0	307319	97.81	-1
0	307635	97.91	-1
0	307957	98.01	-1
0	308273	98.11	-1
0	308589	98.21	-1
0	308905	98.31	-1
0	309221	98.41	-1
0	309537	98.51	-1
0	309853	98.61	-1
0	310169	98.71	-1
0	310485	98.81	-1
0	310801	98.91	-1
0	311123	99.01	-1
0	311439	99.11	-1
0	311755	99.21	-1
0	312071	99.31	-1
0	312387	99.41	-1
0	312703	99.51	-1
0	313019	99.61	-1
0	313335	99.71	-1
0	313651	99.81	-1
0	313967	99.91	-1
1	113	1.11	0
1	429	1.21	0
1	745	1.31	0
1	1061	1.41	0
1	1377	1.51	0
1	1693	1.61	0
1	2009	1.71	0
1	2325	1.81	0
1	2641	1.91	0
1	2963	2.01	0
1	3279	2.11	0
1	3595	2.21	0
1	3911	2.31	0
1	4227	2.41	0
1	4543	2.51	0
1	4859	2.61	0
1	5175	2.71	0
1	5491	2.81	0
1	5807	2.91	0
1	6129	3.01	0
1	6445	3.11	0
1	6761	3.21	0
1	7077	3.31	0
1	7393	3.41	0
1	7709	3.51	0
1	8025	3.61	0
1	8341	3.71	0
1	8657	3.81	0
1	8973	3.91	0
1	9295	4.01	0
1	9611	4.11	0
1	9927	4.21	0
1	10243	4.31	0
1	10559	4.41	0
1	10875	4.51	0
1	11191	4.61	0
1	11507	4.71	0
1	11823	4.81	0
1	12139	4.91	0
1	12461	5.01	0
1	12777	5.11	0
1	13093	5.21	0
1	13409	5.31	0
1	13725	5.41	0
1	14041	5.51	0
1	14357	5.61	0
1	14673	5.71	0
1	14989	5.81	0
1	15305	5.91	0
1	15627	6.01	0
1	15943	6.11	0
1	16259	6.21	0
1	16575	6.31	0
1	16891	6.41	0
1	17207	6.51	0
1	17523	6.61	0
1	17839	6.71	0
1	18155	6.81	0
1	18471	6.91	0
1	18793	7.01	0
1	19109	7.11	0
1	19425	7.21	0
1	19741	7.31	0
1	20057	7.41	0
1	20373	7.51	0
1	20689	7.61	0
1	21005	7.71	0
1	21321	7.81	0
1	21637	7.91	0
1	21959	8.01	0
1	22275	8.11	0
1	22591	8.21	0
1	22907	8.31	0
1	23223	8.41	0
1	23539	8.51	0
1	23855	8.61	0
1	24171	8.71	0
1	24487	8.81	0
1	24803	8.91	0
1	25125	9.01	0
1	25441	9.11	0
1	25757	9.21	0
1	26073	9.31	0
1	26389	9.41	0
1	26705	9.51	0
1	27021	9.61	0
1	27337	9.71	0
1	27653	9.81	0
1	27969	9.91	0
1	29349	10.01	0
1	29665	10.11	0
1	29981	10.21	0
1	30297	10.31	0
1	30613	10.41	0
1	30929	10.51	0
1	31245	10.61	0
1	31561	10.71	0
1	31877	10.81	0
1	32193	10.91	0
1	32515	11.01	0
1	32831	11.11	0
1	33147	11.21	0
1	33463	11.31	0
1	33779	11.41	0
1	34095	11.51	0
1	34411	11.61	0
1	34727	11.71	0
1	35043	11.81	0
1	35359	11.91	0
1	35681	12.01	0
1	35997	12.11	0
1	36313	12.21	0
1	36629	12.31	0
1	36945	12.41	0
1	37261	12.51	0
1	37577	12.61	0
1	37893	12.71	0
1	38209	12.81	0
1	38525	12.91	0
1	38847	13.01	0
1	39163	13.11	0
1	39479	13.21	0
1	39795	13.31	0
1	40111	13.41	0
1	40427	13.51	0
1	40743	13.61	0
1	41059	13.71	0
1	41375	13.81	0
1	41691	13.91	0
1	42013	14.01	0
1	42329	14.11	0
1	42645	14.21	0
1	42961	14.31	0
1	43277	14.41	0
1	43593	14.51	0
1	43909	14.61	0
1	44225	14.71	0
1	44541	14.81	0
1	44857	14.91	0
1	45179	15.01	0
1	45495	15.11	0
1	45811	15.21	0
1	46127	15.31	0
1	46443	15.41	0
1	46759	15.51	0
1	47075	15.61	0
1	47391	15.71	0
1	47707	15.81	0
1	48023	15.91	0
1	48345	16.01	0
1	48661	16.11	0
1	48977	16.21	0
1	49293	16.31	0
1	49609	16.41	0
1	49925	16.51	0
1	50241	16.61	0
1	50557	16.71	0
1	50873	16.81	0
1	51189	16.91	0
1	51511	17.01	0
1	51827	17.11	0
1	52143	17.21	0
1	52459	17.31	0
1	52775	17.41	0
1	53091	17.51	0
1	53407	17.61	0
1	53723	17.71	0
1	54039	17.81	0
1	54355	17.91	0
1	54677	18.01	0
1	54993	18.11	0
1	55309	18.21	0
1	55625	18.31	0
1	55941	18.41	0
1	56257	18.51	0
1	56573	18.61	0
1	56889	18.71	0
1	57205	18.81	0
1	57521	18.91	0
1	57843	19.01	0
1	58159	19.11	0
1	58475	19.21	0
1	58791	19.31	0
1	59107	19.41	0
1	59423	19.51	0
1	59739	19.61	0
1	60055	19.71	0
1	60371	19.81	0
1	60687	19.91	0
1	61009	20.01	0
1	61325	20.11	0
1	61641	20.21	0
1	61957	20.31	0
1	62273	20.41	0
1	62589	20.51	0
1	62905	20.61	0
1	63221	20.71	0
1	63537	20.81	0
1	63853	20.91	0
1	64175	21.01	0
1	64491	21.11	0
1	64807	21.21	0
1	65123	21.31	0
1	65439	21.41	0
1	65755	21.51	0
1	66071	21.61	0
1	66387	21.71	0
1	66703	21.81	0
1	67019	21.91	0
1	67341	22.01	0
1	67657	22.11	0
1	67973	22.21	0
1	68289	22.31	0
1	68605	22.41	0
1	68921	22.51	0
1	69237	22.61	0
1	69553	22.71	0
1	69869	22.81	0
1	70185	22.91	0
1	70507	23.01	0
1	70823	23.11	0
1	71139	23.21	0
1	71455	23.31	0
1	71771	23.41	0
1	72087	23.51	0
1	72403	23.61	0
1	72719	23.71	0
1	73035	23.81	0
1	73351	23.91	0
1	73673	24.01	0
1	73989	24.11	0
1	74305	24.21	0
1	74621	24.31	0
1	74937	24.41	0
1	75253	24.51	0
1	75569	24.61	0
1	75885	24.71	0
1	76201	24.81	0
1	76517	24.91	0
1	76839	25.01	0
1	77155	25.11	0
1	77471	25.21	0
1	77787	25.31	0
1	78103	25.41	0
1	78419	25.51	0
1	78735	25.61	0
1	79051	25.71	0
1	79367	25.81	0
1	79683	25.91	0
1	80005	26.01	0
1	80321	26.11	0
1	80637	26.21	0
1	80953	26.31	0
1	81269	26.41	0
1	81585	26.51	0
1	81901	26.61	0
1	82217	26.71	0
1	82533	26.81	0
1	82849	26.91	0
1	83171	27.01	0
1	83487	27.11	0
1	83803	27.21	0
1	84119	27.31	0
1	84435	27.41	0
1	84751	27.51	0
1	85067	27.61	0
1	85383	27.71	0
1	85699	27.81	0
1	86015	27.91	0
1	86337	28.01	0
1	86653	28.11	0
1	86969	28.21	0
1	87285	28.31	0
1	87601	28.41	0
1	87917	28.51	0
1	88233	28.61	0
1	88549	28.71	0
1	88865	28.81	0
1	89181	28.91	0
1	89503	29.01	0
1	89819	29.11	0
1	90135	29.21	0
1	90451	29.31	0
1	90767	29.41	0
1	91083	29.51	0
1	91399	29.61	0
1	91715	29.71	0
1	92031	29.81	0
1	92347	29.91	0
1	92669	30.01	0
1	92985	30.11	0
1	93301	30.21	0
1	93617	30.31	0
1	93933	30.41	0
1	94249	30.51	0
1	94565	30.61	0
1	94881	30.71	0
1	95197	30.81	0
1	95513	30.91	0
1	95835	31.01	0
1	96151	31.11	0
1	96467	31.21	0
1	96783	31.31	0
1	97099	31.41	0
1	97415	31.51	0
1	97731	31.61	0
1	98047	31.71	0
1	98363	31.81	0
1	98679	31.91	0
1	99001	32.01	0
1	99317	32.11	0
1	99633	32.21	0
1	99949	32.31	0
1	100265	32.41	0
1	100581	32.51	0
1	100897	32.61	0
1	101213	32.71	0
1	101529	32.81	0
1	101845	32.91	0
1	102167	33.01	0
1	102483	33.11	0
1	102799	33.21	0
1	103115	33.31	0
1	103431	33.41	0
1	103747	33.51	0
1	104063	33.61	0
1	104379	33.71	0
1	104695	33.81	0
1	105011	33.91	0
1	105333	34.01	0
1	105649	34.11	0
1	105965	34.21	0
1	106281	34.31	0
1	106597	34.41	0
1	106913	34.51	0
1	107229	34.61	0
1	107545	34.71	0
1	107861	34.81	0
1	108177	34.91	0
1	108499	35.01	0
1	108815	35.11	0
1	109131	35.21	0
1	109447	35.31	0
1	109763	35.41	0
1	110079	35.51	0
1	110395	35.61	0
1	110711	35.71	0
1	111027	35.81	0
1	111343	35.91	0
1	111665	36.01	0
1	111981	36.11	0
1	112297	36.21	0
1	112613	36.31	0
1	112929	36.41	0
1	113245	36.51	0
1	113561	36.61	0
1	113877	36.71	0
1	114193	36.81	0
1	114509	36.91	0
1	114831	37.01	0
1	115147	37.11	0
1	115463	37.21	0
1	115779	37.31	0
1	116095	37.41	0
1	116411	37.51	0
1	116727	37.61	0
1	117043	37.71	0
1	117359	37.81	0
1	117675	37.91	0
1	117997	38.01	0
1	118313	38.11	0
1	118629	38.21	0
1	118945	38.31	0
1	119261	38.41	0
1	119577	38.51	0
1	119893	38.61	0
1	120209	38.71	0
1	120525	38.81	0
1	120841	38.91	0
1	121163	39.01	0
1	121479	39.11	0
1	121795	39.21	0
1	122111	39.31	0
1	122427	39.41	0
1	122743	39.51	0
1	123059	39.61	0
1	123375	39.71	0
1	123691	39.81	0
1	124007	39.91	0
1	124329	40.01	0
1	124645	40.11	0
1	124961	40.21	0
1	125277	40.31	0
1	125593	40.41	0
1	125909	40.51	0
1	126225	40.61	0
1	126541	40.71	0
1	126857	40.81	0
1	127173	40.91	0
1	127495	41.01	0
1	127811	41.11	0
1	128127	41.21	0
1	128443	41.31	0
1	128759	41.41	0
1	129075	41.51	0
1	129391	41.61	0
1	129707	41.71	0
1	130023	41.81	0
1	130339	41.91	0
1	130661	42.01	0
1	130977	42.11	0
1	131293	42.21	0
1	131609	42.31	0
1	131925	42.41	0
1	132241	42.51	0
1	132557	42.61	0
1	132873	42.71	0
1	133189	42.81	0
1	133505	42.91	0
1	133827	43.01	0
1	134143	43.11	0
1	134459	43.21	0
1	134775	43.31	0
1	135091	43.41	0
1	135407	43.51	0
1	135723	43.61	0
1	136039	43.71	0
1	136355	43.81	0
1	136671	43.91	0
1	136993	44.01	0
1	137309	44.11	0
1	137625	44.21	0
1	137941	44.31	0
1	138257	44.41	0
1	138573	44.51	0
1	138889	44.61	0
1	139205	44.71	0
1	139521	44.81	0
1	139837	44.91	0
1	140159	45.01	0
1	140475	45.11	0
1	140791	45.21	0
1	141107	45.31	0
1	141423	45.41	0
1	141739	45.51	0
1	142055	45.61	0
1	142371	45.71	0
1	142687	45.81	0
1	143003	45.91	0
1	143325	46.01	0
1	143641	46.11	0
1	143957	46.21	0
1	144273	46.31	0
1	144589	46.41	0
1	144905	46.51	0
1	145221	46.61	0
1	145537	46.71	0
1	145853	46.81	0
1	146169	46.91	0
1	146491	47.01	0
1	146807	47.11	0
1	147123	47.21	0
1	147439	47.31	0
1	147755	47.41	0
1	148071	47.51	0
1	148387	47.61	0
1	148703	47.71	0
1	149019	47.81	0
1	149335	47.91	0
1	149657	48.01	0
1	149973	48.11	0
1	150289	48.21	0
1	150605	48.31	0
1	150921	48.41	0
1	151237	48.51	0
1	151553	48.61	0
1	151869	48.71	0
1	152185	48.81	0
1	152501	48.91	0
1	152823	49.01	0
1	153139	49.11	0
1	153455	49.21	0
1	153771	49.31	0
1	154087	49.41	0
1	154403	49.51	0
1	154719	49.61	0
1	155035	49.71	0
1	155351	49.81	0
1	155667	49.91	0
1	155989	50.01	0
1	156305	50.11	0
1	156621	50.21	0
1	156937	50.31	0
1	157253	50.41	0
1	157569	50.51	0
1	157885	50.61	0
1	158201	50.71	0
1	158517	50.81	0
1	158833	50.91	0
1	159155	51.01	0
1	159471	51.11	0
1	159787	51.21	0
1	160103	51.31	0
1	160419	51.41	0
1	160735	51.51	0
1	161051	51.61	0
1	161367	51.71	0
1	161683	51.81	0
1	161999	51.91	0
1	162321	52.01	0
1	162637	52.11	0
1	162953	52.21	0
1	163269	52.31	0
1	163585	52.41	0
1	163901	52.51	0
1	164217	52.61	0
1	164533	52.71	0
1	164849	52.81	0
1	165165	52.91	0
1	165487	53.01	0
1	165803	53.11	0
1	166119	53.21	0
1	166435	53.31	0
1	166751	53.41	0
1	167067	53.51	0
1	167383	53.61	0
1	167699	53.71	0
1	168015	53.81	0
1	168331	53.91	0
1	168653	54.01	0
1	168969	54.11	0
1	169285	54.21	0
1	169601	54.31	0
1	169917	54.41	0
1	170233	54.51	0
1	170549	54.61	0
1	170865	54.71	0
1	171181	54.81	0
1	171497	54.91	0
1	171819	55.01	0
1	172135	55.11	0
1	172451	55.21	0
1	172767	55.31	0
1	173083	55.41	0
1	173399	55.51	0
1	173715	55.61	0
1	174031	55.71	0
1	174347	55.81	0
1	174663	55.91	0
1	174985	56.01	0
1	175301	56.11	0
1	175617	56.21	0
1	175933	56.31	0
1	176249	56.41	0
1	176565	56.51	0
1	176881	56.61	0
1	177197	56.71	0
1	177513	56.81	0
1	177829	56.91	0
1	178151	57.01	0
1	178467	57.11	0
1	178783	57.21	0
1	179099	57.31	0
1	179415	57.41	0
1	179731	57.51	0
1	180047	57.61	0
1	180363	57.71	0
1	180679	57.81	0
1	180995	57.91	0
1	181317	58.01	0
1	181633	58.11	0
1	181949	58.21	0
1	182265	58.31	0
1	182581	58.41	0
1	182897	58.51	0
1	183213	58.61	0
1	183529	58.71	0
1	183845	58.81	0
1	184161	58.91	0
1	184483	59.01	0
1	184799	59.11	0
1	185115	59.21	0
1	185431	59.31	0
1	185747	59.41	0
1	186063	59.51	0
1	186379	59.61	0
1	186695	59.71	0
1	187011	59.81	0
1	187327	59.91	0
1	187649	60.01	0
1	187965	60.11	0
1	188281	60.21	0
1	188597	60.31	0
1	188913	60.41	0
1	189229	60.51	0
1	189545	60.61	0
1	189861	60.71	0
1	190177	60.81	0
1	190493	60.91	0
1	190815	61.01	0
1	191131	61.11	0
1	191447	61.21	0
1	191763	61.31	0
1	192079	61.41	0
1	192395	61.51	0
1	192711	61.61	0
1	193027	61.71	0
1	193343	61.81	0
1	193659	61.91	0
1	193981	62.01	0
1	194297	62.11	0
1	194613	62.21	0
1	194929	62.31	0
1	195245	62.41	0
1	195561	62.51	0
1	195877	62.61	0
1	196193	62.71	0
1	196509	62.81	0
1	196825	62.91	0
1	197147	63.01	0
1	197463	63.11	0
1	197779	63.21	0
1	198095	63.31	0
1	198411	63.41	0
1	198727	63.51	0
1	199043	63.61	0
1	199359	63.71	0
1	199675	63.81	0
1	199991	63.91	0
1	200313	64.01	0
1	200629	64.11	0
1	200945	64.21	0
1	201261	64.31	0
1	201577	64.41	0
1	201893	64.51	0
1	202209	64.61	0
1	202525	64.71	0
1	202841	64.81	0
1	203157	64.91	0
1	203479	65.01	0
1	203795	65.11	0
1	204111	65.21	0
1	204427	65.31	0
1	204743	65.41	0
1	205059	65.51	0
1	205375	65.61	0
1	205691	65.71	0
1	206007	65.81	0
1	206323	65.91	0
1	206645	66.01	0
1	206961	66.11	0
1	207277	66.21	0
1	207593	66.31	0
1	207909	66.41	0
1	208225	66.51	0
1	208541	66.61	0
1	208857	66.71	0
1	209173	66.81	0
1	209489	66.91	0
1	209811	67.01	0
1	210127	67.11	0
1	210443	67.21	0
1	210759	67.31	0
1	211075	67.41	0
1	211391	67.51	0
1	211707	67.61	0
1	212023	67.71	0
1	212339	67.81	0
1	212655	67.91	0
1	212977	68.01	0
1	213293	68.11	0
1	213609	68.21	0
1	213925	68.31	0
1	214241	68.41	0
1	214557	68.51	0
1	214873	68.61	0
1	215189	68.71	0
1	215505	68.81	0
1	215821	68.91	0
1	216143	69.01	0
1	216459	69.11	0
1	216775	69.21	0
1	217091	69.31	0
1	217407	69.41	0
1	217723	69.51	0
1	218039	69.61	0
1	218355	69.71	0
1	218671	69.81	0
1	218987	69.91	0
1	219309	70.01	0
1	219625	70.11	0
1	219941	70.21	0
1	220257	70.31	0
1	220573	70.41	0
1	220889	70.51	0
1	221205	70.61	0
1	221521	70.71	0
1	221837	70.81	0
1	222153	70.91	0
1	222475	71.01	0
1	222791	71.11	0
1	223107	71.21	0
1	223423	71.31	0
1	223739	71.41	0
1	224055	71.51	0
1	224371	71.61	0
1	224687	71.71	0
1	225003	71.81	0
1	225319	71.91	0
1	225641	72.01	0
1	225957	72.11	0
1	226273	72.21	0
1	226589	72.31	0
1	226905	72.41	0
1	227221	72.51	0
1	227537	72.61	0
1	227853	72.71	0
1	228169	72.81	0
1	228485	72.91	0
1	228807	73.01	0
1	229123	73.11	0
1	229439	73.21	0
1	229755	73.31	0
1	230071	73.41	0
1	230387	73.51	0
1	230703	73.61	0
1	231019	73.71	0
1	231335	73.81	0
1	231651	73.91	0
1	231973	74.01	0
1	232289	74.11	0
1	232605	74.21	0
1	232921	74.31	0
1	233237	74.41	0
1	233553	74.51	0
1	233869	74.61	0
1	234185	74.71	0
1	234501	74.81	0
1	234817	74.91	0
1	235139	75.01	0
1	235455	75.11	0
1	235771	75.21	0
1	236087	75.31	0
1	236403	75.41	0
1	236719	75.51	0
1	237035	75.61	0
1	237351	75.71	0
1	237667	75.81	0
1	237983	75.91	0
1	238305	76.01	0
1	238621	76.11	0
1	238937	76.21	0
1	239253	76.31	0
1	239569	76.41	0
1	239885	76.51	0
1	240201	76.61	0
1	240517	76.71	0
1	240833	76.81	0
1	241149	76.91	0
1	241471	77.01	0
1	241787	77.11	0
1	242103	77.21	0
1	242419	77.31	0
1	242735	77.41	0
1	243051	77.51	0
1	243367	77.61	0
1	243683	77.71	0
1	243999	77.81	0
1	244315	77.91	0
1	244637	78.01	0
1	244953	78.11	0
1	245269	78.21	0
1	245585	78.31	0
1	245901	78.41	0
1	246217	78.51	0
1	246533	78.61	0
1	246849	78.71	0
1	247165	78.81	0
1	247481	78.91	0
1	247803	79.01	0
1	248119	79.11	0
1	248435	79.21	0
1	248751	79.31	0
1	249067	79.41	0
1	249383	79.51	0
1	249699	79.61	0
1	250015	79.71	0
1	250331	79.81	0
1	250647	79.91	0
1	250969	80.01	0
1	251285	80.11	0
1	251601	80.21	0
1	251917	80.31	0
1	252233	80.41	0
1	252549	80.51	0
1	252865	80.61	0
1	253181	80.71	0
1	253497	80.81	0
1	253813	80.91	0
1	254135	81.01	0
1	254451	81.11	0
1	254767	81.21	0
1	255083	81.31	0
1	255399	81.41	0
1	255715	81.51	0
1	256031	81.61	0
1	256347	81.71	0
1	256663	81.81	0
1	256979	81.91	0
1	257301	82.01	0
1	257617	82.11	0
1	257933	82.21	0
1	258249	82.31	0
1	258565	82.41	0
1	258881	82.51	0
1	259197	82.61	0
1	259513	82.71	0
1	259829	82.81	0
1	260145	82.91	0
1	260467	83.01	0
1	260783	83.11	0
1	261099	83.21	0
1	261415	83.31	0
1	261731	83.41	0
1	262047	83.51	0
1	262363	83.61	0
1	262679	83.71	0
1	262995	83.81	0
1	263311	83.91	0
1	263633	84.01	0
1	263949	84.11	0
1	264265	84.21	0
1	264581	84.31	0
1	264897	84.41	0
1	265213	84.51	0
1	265529	84.61	0
1	265845	84.71	0
1	266161	84.81	0
1	266477	84.91	0
1	266799	85.01	0
1	267115	85.11	0
1	267431	85.21	0
1	267747	85.31	0
1	268063	85.41	0
1	268379	85.51	0
1	268695	85.61	0
1	269011	85.71	0
1	269327	85.81	0
1	269643	85.91	0
1	269965	86.01	0
1	270281	86.11	0
1	270597	86.21	0
1	270913	86.31	0
1	271229	86.41	0
1	271545	86.51	0
1	271861	86.61	0
1	272177	86.71	0
1	272493	86.81	0
1	272809	86.91	0
1	273131	87.01	0
1	273447	87.11	0
1	273763	87.21	0
1	274079	87.31	0
1	274395	87.41	0
1	274711	87.51	0
1	275027	87.61	0
1	275343	87.71	0
1	275659	87.81	0
1	275975	87.91	0
1	276297	88.01	0
1	276613	88.11	0
1	276929	88.21	0
1	277245	88.31	0
1	277561	88.41	0
1	277877	88.51	0
1	278193	88.61	0
1	278509	88.71	0
1	278825	88.81	0
1	279141	88.91	0
1	279463	89.01	0
1	279779	89.11	0
1	280095	89.21	0
1	280411	89.31	0
1	280727	89.41	0
1	281043	89.51	0
1	281359	89.61	0
1	281675	89.71	0
1	281991	89.81	0
1	282307	89.91	0
1	282629	90.01	0
1	282945	90.11	0
1	283261	90.21	0
1	283577	90.31	0
1	283893	90.41	0
1	284209	90.51	0
1	284525	90.61	0
1	284841	90.71	0
1	285157	90.81	0
1	285473	90.91	0
1	285795	91.01	0
1	286111	91.11	0
1	286427	91.21	0
1	286743	91.31	0
1	287059	91.41	0
1	287375	91.51	0
1	287691	91.61	0
1	288007	91.71	0
1	288323	91.81	0
1	288639	91.91	0
1	288961	92.01	0
1	289277	92.11	0
1	289593	92.21	0
1	289909	92.31	0
1	290225	92.41	0
1	290541	92.51	0
1	290857	92.61	0
1	291173	92.71	0
1	291489	92.81	0
1	291805	92.91	0
1	292127	93.01	0
1	292443	93.11	0
1	292759	93.21	0
1	293075	93.31	0
1	293391	93.41	0
1	293707	93.51	0
1	294023	93.61	0
1	294339	93.71	0
1	294655	93.81	0
1	294971	93.91	0
1	295293	94.01	0
1	295609	94.11	0
1	295925	94.21	0
1	296241	94.31	0
1	296557	94.41	0
1	296873	94.51	0
1	297189	94.61	0
1	297505	94.71	0
1	297821	94.81	0
1	298137	94.91	0
1	298459	95.01	0
1	298775	95.11	0
1	299091	95.21	0
1	299407	95.31	0
1	299723	95.41	0
1	300039	95.51	0
1	300355	95.61	0
1	300671	95.71	0
1	300987	95.81	0
1	301303	95.91	0
1	301625	96.01	0
1	301941	96.11	0
1	302257	96.21	0
1	302573	96.31	0
1	302889	96.41	0
1	303205	96.51	0
1	303521	96.61	0
1	303837	96.71	0
1	304153	96.81	0
1	304469	96.91	0
1	304791	97.01	0
1	305107	97.11	0
1	305423	97.21	0
1	305739	97.31	0
1	306055	97.41	0
1	306371	97.51	0
1	306687	97.61	0
1	307003	97.71	0
1	307319	97.81	0
1	307635	97.91	0
1	307957	98.01	0
1	308273	98.11	0
1	308589	98.21	0
1	308905	98.31	0
1	309221	98.41	0
1	309537	98.51	0
1	309853	98.61	0
1	310169	98.71	0
1	310485	98.81	0
1	310801	98.91	0
1	311123	99.01	0
1	311439	99.11	0
1	311755	99.21	0
1	312071	99.31	0
1	312387	99.41	0
1	312703	99.51	0
1	313019	99.61	0
1	313335	99.71	0
1	313651	99.81	0
1	313967	99.91	0
2	113	1.11	0
2	429	1.21	0
2	745	1.31	0
2	1061	1.41	0
2	1377	1.51	0
2	1693	1.61	0
2	2009	1.71	0
2	2325	1.81	0
2	2641	1.91	0
2	2963	2.01	0
2	3279	2.11	0
2	3595	2.21	0
2	3911	2.31	0
2	4227	2.41	0
2	4543	2.51	0
2	4859	2.61	0
2	5175	2.71	0
2	5491	2.81	0
2	5807	2.91	0
2	6129	3.01	0
2	6445	3.11	0
2	6761	3.21	0
2	7077	3.31	0
2	7393	3.41	0
2	7709	3.51	0
2	8025	3.61	0
2	8341	3.71	0
2	8657	3.81	0
2	8973	3.91	0
2	9295	4.01	0
2	9611	4.11	0
2	9927	4.21	0
2	10243	4.31	0
2	10559	4.41	0
2	10875	4.51	0
2	11191	4.61	0
2	11507	4.71	0
2	11823	4.81	0
2	12139	4.91	0
2	12461	5.01	0
2	12777	5.11	0
2	13093	5.21	0
2	13409	5.31	0
2	13725	5.41	0
2	14041	5.51	0
2	14357	5.61	0
2	14673	5.71	0
2	14989	5.81	0
2	15305	5.91	0
2	15627	6.01	0
2	15943	6.11	0
2	16259	6.21	0
2	16575	6.31	0
2	16891	6.41	0
2	17207	6.51	0
2	17523	6.61	0
2	17839	6.71	0
2	18155	6.81	0
2	18471	6.91	0
2	18793	7.01	0
2	19109	7.11	0
2	19425	7.21	0
2	19741	7.31	0
2	20057	7.41	0
2	20373	7.51	0
2	20689	7.61	0
2	21005	7.71	0
2	21321	7.81	0
2	21637	7.91	0
2	21959	8.01	0
2	22275	8.11	0
2	22591	8.21	0
2	22907	8.31	0
2	23223	8.41	0
2	23539	8.51	0
2	23855	8.61	0
2	24171	8.71	0
2	24487	8.81	0
2	24803	8.91	0
2	25125	9.01	0
2	25441	9.11	0
2	25757	9.21	0
2	26073	9.31	0
2	26389	9.41	0
2	26705	9.51	0
2	27021	9.61	0
2	27337	9.71	0
2	27653	9.81	0
2	27969	9.91	0
2	29349	10.01	0
2	29665	10.11	0
2	29981	10.21	0
2	30297	10.31	0
2	30613	10.41	0
2	30929	10.51	0
2	31245	10.61	0
2	31561	10.71	0
2	31877	10.81	0
2	32193	10.91	0
2	32515	11.01	0
2	32831	11.11	0
2	33147	11.21	0
2	33463	11.31	0
2	33779	11.41	0
2	34095	11.51	0
2	34411	11.61	0
2	34727	11.71	0
2	35043	11.81	0
2	35359	11.91	0
2	35681	12.01	0
2	35997	12.11	0
2	36313	12.21	0
2	36629	12.31	0
2	36945	12.41	0
2	37261	12.51	0
2	37577	12.61	0
2	37893	12.71	0
2	38209	12.81	0
2	38525	12.91	0
2	38847	13.01	0
2	39163	13.11	0
2	39479	13.21	0
2	39795	13.31	0
2	40111	13.41	0
2	40427	13.51	0
2	40743	13.61	0
2	41059	13.71	0
2	41375	13.81	0
2	41691	13.91	0
2	42013	14.01	0
2	42329	14.11	0
2	42645	14.21	0
2	42961	14.31	0
2	43277	14.41	0
2	43593	14.51	0
2	43909	14.61	0
2	44225	14.71	0
2	44541	14.81	0
2	44857	14.91	0
2	45179	15.01	0
2	45495	15.11	0
2	45811	15.21	0
2	46127	15.31	0
2	46443	15.41	0
2	46759	15.51	0
2	47075	15.61	0
2	47391	15.71	0
2	47707	15.81	0
2	48023	15.91	0
2	48345	16.01	0
2	48661	16.11	0
2	48977	16.21	0
2	49293	16.31	0
2	49609	16.41	0
2	49925	16.51	0
2	50241	16.61	0
2	50557	16.71	0
2	50873	16.81	0
2	51189	16.91	0
2	51511	17.01	0
2	51827	17.11	0
2	52143	17.21	0
2	52459	17.31	0
2	52775	17.41	0
2	53091	17.51	0
2	53407	17.61	0
2	53723	17.71	0
2	54039	17.81	0
2	54355	17.91	0
2	54677	18.01	0
2	54993	18.11	0
2	55309	18.21	0
2	55625	18.31	0
2	55941	18.41	0
2	56257	18.51	0
2	56573	18.61	0
2	56889	18.71	0
2	57205	18.81	0
2	57521	18.91	0
2	57843	19.01	0
2	58159	19.11	0
2	58475	19.21	0
2	58791	19.31	0
2	59107	19.41	0
2	59423	19.51	0
2	59739	19.61	0
2	60055	19.71	0
2	60371	19.81	0
2	60687	19.91	0
2	61009	20.01	0
2	61325	20.11	0
2	61641	20.21	0
2	61957	20.31	0
2	62273	20.41	0
2	62589	20.51	0
2	62905	20.61	0
2	63221	20.71	0
2	63537	20.81	0
2	63853	20.91	0
2	64175	21.01	0
2	64491	21.11	0
2	64807	21.21	0
2	65123	21.31	0
2	65439	21.41	0
2	65755	21.51	0
2	66071	21.61	0
2	66387	21.71	0
2	66703	21.81	0
2	67019	21.91	0
2	67341	22.01	0
2	67657	22.11	0
2	67973	22.21	0
2	68289	22.31	0
2	68605	22.41	0
2	68921	22.51	0
2	69237	22.61	0
2	69553	22.71	0
2	69869	22.81	0
2	70185	22.91	0
2	70507	23.01	0
2	70823	23.11	0
2	71139	23.21	0
2	71455	23.31	0
2	71771	23.41	0
2	72087	23.51	0
2	72403	23.61	0
2	72719	23.71	0
2	73035	23.81	0
2	73351	23.91	0
2	73673	24.01	0
2	73989	24.11	0
2	74305	24.21	0
2	74621	24.31	0
2	74937	24.41	0
2	75253	24.51	0
2	75569	24.61	0
2	75885	24.71	0
2	76201	24.81	0
2	76517	24.91	0
2	76839	25.01	0
2	77155	25.11	0
2	77471	25.21	0
2	77787	25.31	0
2	78103	25.41	0
2	78419	25.51	0
2	78735	25.61	0
2	79051	25.71	0
2	79367	25.81	0
2	79683	25.91	0
2	80005	26.01	0
2	80321	26.11	0
2	80637	26.21	0
2	80953	26.31	0
2	81269	26.41	0
2	81585	26.51	0
2	81901	26.61	0
2	82217	26.71	0
2	82533	26.81	0
2	82849	26.91	0
2	83171	27.01	0
2	83487	27.11	0
2	83803	27.21	0
2	84119	27.31	0
2	84435	27.41	0
2	84751	27.51	0
2	85067	27.61	0
2	85383	27.71	0
2	85699	27.81	0
2	86015	27.91	0
2	86337	28.01	0
2	86653	28.11	0
2	86969	28.21	0
2	87285	28.31	0
2	87601	28.41	0
2	87917	28.51	0
2	88233	28.61	0
2	88549	28.71	0
2	88865	28.81	0
2	89181	28.91	0
2	89503	29.01	0
2	89819	29.11	0
2	90135	29.21	0
2	90451	29.31	0
2	90767	29.41	0
2	91083	29.51	0
2	91399	29.61	0
2	91715	29.71	0
2	92031	29.81	0
2	92347	29.91	0
2	92669	30.01	0
2	92985	30.11	0
2	93301	30.21	0
2	93617	30.31	0
2	93933	30.41	0
2	94249	30.51	0
2	94565	30.61	0
2	94881	30.71	0
2	95197	30.81	0
2	95513	30.91	0
2	95835	31.01	0
2	96151	31.11	0
2	96467	31.21	0
2	96783	31.31	0
2	97099	31.41	0
2	97415	31.51	0
2	97731	31.61	0
2	98047	31.71	0
2	98363	31.81	0
2	98679	31.91	0
2	99001	32.01	0
2	99317	32.11	0
2	99633	32.21	0
2	99949	32.31	0
2	100265	32.41	0
2	100581	32.51	0
2	100897	32.61	0
2	101213	32.71	0
2	101529	32.81	0
2	101845	32.91	0
2	102167	33.01	0
2	102483	33.11	0
2	102799	33.21	0
2	103115	33.31	0
2	103431	33.41	0
2	103747	33.51	0
2	104063	33.61	0
2	104379	33.71	0
2	104695	33.81	0
2	105011	33.91	0
2	105333	34.01	0
2	105649	34.11	0
2	105965	34.21	0
2	106281	34.31	0
2	106597	34.41	0
2	106913	34.51	0
2	107229	34.61	0
2	107545	34.71	0
2	107861	34.81	0
2	108177	34.91	0
2	108499	35.01	0
2	108815	35.11	0
2	109131	35.21	0
2	109447	35.31	0
2	109763	35.41	0
2	110079	35.51	0
2	110395	35.61	0
2	110711	35.71	0
2	111027	35.81	0
2	111343	35.91	0
2	111665	36.01	0
2	111981	36.11	0
2	112297	36.21	0
2	112613	36.31	0
2	112929	36.41	0
2	113245	36.51	0
2	113561	36.61	0
2	113877	36.71	0
2	114193	36.81	0
2	114509	36.91	0
2	114831	37.01	0
2	115147	37.11	0
2	115463	37.21	0
2	115779	37.31	0
2	116095	37.41	0
2	116411	37.51	0
2	116727	37.61	0
2	117043	37.71	0
2	117359	37.81	0
2	117675	37.91	0
2	117997	38.01	0
2	118313	38.11	0
2	118629	38.21	0
2	118945	38.31	0
2	119261	38.41	0
2	119577	38.51	0
2	119893	38.61	0
2	120209	38.71	0
2	120525	38.81	0
2	120841	38.91	0
2	121163	39.01	0
2	121479	39.11	0
2	121795	39.21	0
2	122111	39.31	0
2	122427	39.41	0
2	122743	39.51	0
2	123059	39.61	0
2	123375	39.71	0
2	123691	39.81	0
2	124007	39.91	0
2	124329	40.01	0
2	124645	40.11	0
2	124961	40.21	0
2	125277	40.31	0
2	125593	40.41	0
2	125909	40.51	0
2	126225	40.61	0
2	126541	40.71	0
2	126857	40.81	0
2	127173	40.91	0
2	127495	41.01	0
2	127811	41.11	0
2	128127	41.21	0
2	128443	41.31	0
2	128759	41.41	0
2	129075	41.51	0
2	129391	41.61	0
2	129707	41.71	0
2	130023	41.81	0
2	130339	41.91	0
2	130661	42.01	0
2	130977	42.11	0
2	131293	42.21	0
2	131609	42.31	0
2	131925	42.41	0
2	132241	42.51	0
2	132557	42.61	0
2	132873	42.71	0
2	133189	42.81	0
2	133505	42.91	0
2	133827	43.01	0
2	134143	43.11	0
2	134459	43.21	0
2	134775	43.31	0
2	135091	43.41	0
2	135407	43.51	0
2	135723	43.61	0
2	136039	43.71	0
2	136355	43.81	0
2	136671	43.91	0
2	136993	44.01	0
2	137309	44.11	0
2	137625	44.21	0
2	137941	44.31	0
2	138257	44.41	0
2	138573	44.51	0
2	138889	44.61	0
2	139205	44.71	0
2	139521	44.81	0
2	139837	44.91	0
2	140159	45.01	0
2	140475	45.11	0
2	140791	45.21	0
2	141107	45.31	0
2	141423	45.41	0
2	141739	45.51	0
2	142055	45.61	0
2	142371	45.71	0
2	142687	45.81	0
2	143003	45.91	0
2	143325	46.01	0
2	143641	46.11	0
2	143957	46.21	0
2	144273	46.31	0
2	144589	46.41	0
2	144905	46.51	0
2	145221	46.61	0
2	145537	46.71	0
2	145853	46.81	0
2	146169	46.91	0
2	146491	47.01	0
2	146807	47.11	0
2	147123	47.21	0
2	147439	47.31	0
2	147755	47.41	0
2	148071	47.51	0
2	148387	47.61	0
2	148703	47.71	0
2	149019	47.81	0
2	149335	47.91	0
2	149657	48.01	0
2	149973	48.11	0
2	150289	48.21	0
2	150605	48.31	0
2	150921	48.41	0
2	151237	48.51	0
2	151553	48.61	0
2	151869	48.71	0
2	152185	48.81	0
2	152501	48.91	0
2	152823	49.01	0
2	153139	49.11	0
2	153455	49.21	0
2	153771	49.31	0
2	154087	49.41	0
2	154403	49.51	0
2	154719	49.61	0
2	155035	49.71	0
2	155351	49.81	0
2	155667	49.91	0
2	155989	50.01	0
2	156305	50.11	0
2	156621	50.21	0
2	156937	50.31	0
2	157253	50.41	0
2	157569	50.51	0
2	157885	50.61	0
2	158201	50.71	0
2	158517	50.81	0
2	158833	50.91	0
2	159155	51.01	0
2	159471	51.11	0
2	159787	51.21	0
2	160103	51.31	0
2	160419	51.41	0
2	160735	51.51	0
2	161051	51.61	0
2	161367	51.71	0
2	161683	51.81	0
2	161999	51.91	0
2	162321	52.01	0
2	162637	52.11	0
2	162953	52.21	0
2	163269	52.31	0
2	163585	52.41	0
2	163901	52.51	0
2	164217	52.61	0
2	164533	52.71	0
2	164849	52.81	0
2	165165	52.91	0
2	165487	53.01	0
2	165803	53.11	0
2	166119	53.21	0
2	166435	53.31	0
2	166751	53.41	0
2	167067	53.51	0
2	167383	53.61	0
2	167699	53.71	0
2	168015	53.81	0
2	168331	53.91	0
2	168653	54.01	0
2	168969	54.11	0
2	169285	54.21	0
2	169601	54.31	0
2	169917	54.41	0
2	170233	54.51	0
2	170549	54.61	0
2	170865	54.71	0
2	171181	54.81	0
2	171497	54.91	0
2	171819	55.01	0
2	172135	55.11	0
2	172451	55.21	0
2	172767	55.31	0
2	173083	55.41	0
2	173399	55.51	0
2	173715	55.61	0
2	174031	55.71	0
2	174347	55.81	0
2	174663	55.91	0
2	174985	56.01	0
2	175301	56.11	0
2	175617	56.21	0
2	175933	56.31	0
2	176249	56.41	0
2	176565	56.51	0
2	176881	56.61	0
2	177197	56.71	0
2	177513	56.81	0
2	177829	56.91	0
2	178151	57.01	0
2	178467	57.11	0
2	178783	57.21	0
2	179099	57.31	0
2	179415	57.41	0
2	179731	57.51	0
2	180047	57.61	0
2	180363	57.71	0
2	180679	57.81	0
2	180995	57.91	0
2	181317	58.01	0
2	181633	58.11	0
2	181949	58.21	0
2	182265	58.31	0
2	182581	58.41	0
2	182897	58.51	0
2	183213	58.61	0
2	183529	58.71	0
2	183845	58.81	0
2	184161	58.91	0
2	184483	59.01	0
2	184799	59.11	0
2	185115	59.21	0
2	185431	59.31	0
2	185747	59.41	0
2	186063	59.51	0
2	186379	59.61	0
2	186695	59.71	0
2	187011	59.81	0
2	187327	59.91	0
2	187649	60.01	0
2	187965	60.11	0
2	188281	60.21	0
2	188597	60.31	0
2	188913	60.41	0
2	189229	60.51	0
2	189545	60.61	0
2	189861	60.71	0
2	190177	60.81	0
2	190493	60.91	0
2	190815	61.01	0
2	191131	61.11	0
2	191447	61.21	0
2	191763	61.31	0
2	192079	61.41	0
2	192395	61.51	0
2	192711	61.61	0
2	193027	61.71	0
2	193343	61.81	0
2	193659	61.91	0
2	193981	62.01	0
2	194297	62.11	0
2	194613	62.21	0
2	194929	62.31	0
2	195245	62.41	0
2	195561	62.51	0
2	195877	62.61	0
2	196193	62.71	0
2	196509	62.81	0
2	196825	62.91	0
2	197147	63.01	0
2	197463	63.11	0
2	197779	63.21	0
2	198095	63.31	0
2	198411	63.41	0
2	198727	63.51	0
2	199043	63.61	0
2	199359	63.71	0
2	199675	63.81	0
2	199991	63.91	0
2	200313	64.01	0
2	200629	64.11	0
2	200945	64.21	0
2	201261	64.31	0
2	201577	64.41	0
2	201893	64.51	0
2	202209	64.61	0
2	202525	64.71	0
2	202841	64.81	0
2	203157	64.91	0
2	203479	65.01	0
2	203795	65.11	0
2	204111	65.21	0
2	204427	65.31	0
2	204743	65.41	0
2	205059	65.51	0
2	205375	65.61	0
2	205691	65.71	0
2	206007	65.81	0
2	206323	65.91	0
2	206645	66.01	0
2	206961	66.11	0
2	207277	66.21	0
2	207593	66.31	0
2	207909	66.41	0
2	208225	66.51	0
2	208541	66.61	0
2	208857	66.71	0
2	209173	66.81	0
2	209489	66.91	0
2	209811	67.01	0
2	210127	67.11	0
2	210443	67.21	0
2	210759	67.31	0
2	211075	67.41	0
2	211391	67.51	0
2	211707	67.61	0
2	212023	67.71	0
2	212339	67.81	0
2	212655	67.91	0
2	212977	68.01	0
2	213293	68.11	0
2	213609	68.21	0
2	213925	68.31	0
2	214241	68.41	0
2	214557	68.51	0
2	214873	68.61	0
2	215189	68.71	0
2	215505	68.81	0
2	215821	68.91	0
2	216143	69.01	0
2	216459	69.11	0
2	216775	69.21	0
2	217091	69.31	0
2	217407	69.41	0
2	217723	69.51	0
2	218039	69.61	0
2	218355	69.71	0
2	218671	69.81	0
2	218987	69.91	0
2	219309	70.01	0
2	219625	70.11	0
2	219941	70.21	0
2	220257	70.31	0
2	220573	70.41	0
2	220889	70.51	0
2	221205	70.61	0
2	221521	70.71	0
2	221837	70.81	0
2	222153	70.91	0
2	222475	71.01	0
2	222791	71.11	0
2	223107	71.21	0
2	223423	71.31	0
2	223739	71.41	0
2	224055	71.51	0
2	224371	71.61	0
2	224687	71.71	0
2	225003	71.81	0
2	225319	71.91	0
2	225641	72.01	0
2	225957	72.11	0
2	226273	72.21	0
2	226589	72.31	0
2	226905	72.41	0
2	227221	72.51	0
2	227537	72.61	0
2	227853	72.71	0
2	228169	72.81	0
2	228485	72.91	0
2	228807	73.01	0
2	229123	73.11	0
2	229439	73.21	0
2	229755	73.31	0
2	230071	73.41	0
2	230387	73.51	0
2	230703	73.61	0
2	231019	73.71	0
2	231335	73.81	0
2	231651	73.91	0
2	231973	74.01	0
2	232289	74.11	0
2	232605	74.21	0
2	232921	74.31	0
2	233237	74.41	0
2	233553	74.51	0
2	233869	74.61	0
2	234185	74.71	0
2	234501	74.81	0
2	234817	74.91	0
2	235139	75.01	0
2	235455	75.11	0
2	235771	75.21	0
2	236087	75.31	0
2	236403	75.41	0
2	236719	75.51	0
2	237035	75.61	0
2	237351	75.71	0
2	237667	75.81	0
2	237983	75.91	0
2	238305	76.01	0
2	238621	76.11	0
2	238937	76.21	0
2	239253	76.31	0
2	239569	76.41	0
2	239885	76.51	0
2	240201	76.61	0
2	240517	76.71	0
2	240833	76.81	0
2	241149	76.91	0
2	241471	77.01	0
2	241787	77.11	0
2	242103	77.21	0
2	242419	77.31	0
2	242735	77.41	0
2	243051	77.51	0
2	243367	77.61	0
2	243683	77.71	0
2	243999	77.81	0
2	244315	77.91	0
2	244637	78.01	0
2	244953	78.11	0
2	245269	78.21	0
2	245585	78.31	0
2	245901	78.41	0
2	246217	78.51	0
2	246533	78.61	0
2	246849	78.71	0
2	247165	78.81	0
2	247481	78.91	0
2	247803	79.01	0
2	248119	79.11	0
2	248435	79.21	0
2	248751	79.31	0
2	249067	79.41	0
2	249383	79.51	0
2	249699	79.61	0
2	250015	79.71	0
2	250331	79.81	0
2	250647	79.91	0
2	250969	80.01	0
2	251285	80.11	0
2	251601	80.21	0
2	251917	80.31	0
2	252233	80.41	0
2	252549	80.51	0
2	252865	80.61	0
2	253181	80.71	0
2	253497	80.81	0
2	253813	80.91	0
2	254135	81.01	0
2	254451	81.11	0
2	254767	81.21	0
2	255083	81.31	0
2	255399	81.41	0
2	255715	81.51	0
2	256031	81.61	0
2	256347	81.71	0
2	256663	81.81	0
2	256979	81.91	0
2	257301	82.01	0
2	257617	82.11	0
2	257933	82.21	0
2	258249	82.31	0
2	258565	82.41	0
2	258881	82.51	0
2	259197	82.61	0
2	259513	82.71	0
2	259829	82.81	0
2	260145	82.91	0
2	260467	83.01	0
2	260783	83.11	0
2	261099	83.21	0
2	261415	83.31	0
2	261731	83.41	0
2	262047	83.51	0
2	262363	83.61	0
2	262679	83.71	0
2	262995	83.81	0
2	263311	83.91	0
2	263633	84.01	0
2	263949	84.11	0
2	264265	84.21	0
2	264581	84.31	0
2	264897	84.41	0
2	265213	84.51	0
2	265529	84.61	0
2	265845	84.71	0
2	266161	84.81	0
2	266477	84.91	0
2	266799	85.01	0
2	267115	85.11	0
2	267431	85.21	0
2	267747	85.31	0
2	268063	85.41	0
2	268379	85.51	0
2	268695	85.61	0
2	269011	85.71	0
2	269327	85.81	0
2	269643	85.91	0
2	269965	86.01	0
2	270281	86.11	0
2	270597	86.21	0
2	270913	86.31	0
2	271229	86.41	0
2	271545	86.51	0
2	271861	86.61	0
2	272177	86.71	0
2	272493	86.81	0
2	272809	86.91	0
2	273131	87.01	0
2	273447	87.11	0
2	273763	87.21	0
2	274079	87.31	0
2	274395	87.41	0
2	274711	87.51	0
2	275027	87.61	0
2	275343	87.71	0
2	275659	87.81	0
2	275975	87.91	0
2	276297	88.01	0
2	276613	88.11	0
2	276929	88.21	0
2	277245	88.31	0
2	277561	88.41	0
2	277877	88.51	0
2	278193	88.61	0
2	278509	88.71	0
2	278825	88.81	0
2	279141	88.91	0
2	279463	89.01	0
2	279779	89.11	0
2	280095	89.21	0
2	280411	89.31	0
2	280727	89.41	0
2	281043	89.51	0
2	281359	89.61	0
2	281675	89.71	0
2	281991	89.81	0
2	282307	89.91	0
2	282629	90.01	0
2	282945	90.11	0
2	283261	90.21	0
2	283577	90.31	0
2	283893	90.41	0
2	284209	90.51	0
2	284525	90.61	0
2	284841	90.71	0
2	285157	90.81	0
2	285473	90.91	0
2	285795	91.01	0
2	286111	91.11	0
2	286427	91.21	0
2	286743	91.31	0
2	287059	91.41	0
2	287375	91.51	0
2	287691	91.61	0
2	288007	91.71	0
2	288323	91.81	0
2	288639	91.91	0
2	288961	92.01	0
2	289277	92.11	0
2	289593	92.21	0
2	289909	92.31	0
2	290225	92.41	0
2	290541	92.51	0
2	290857	92.61	0
2	291173	92.71	0
2	291489	92.81	0
2	291805	92.91	0
2	292127	93.01	0
2	292443	93.11	0
2	292759	93.21	0
2	293075	93.31	0
2	293391	93.41	0
2	293707	93.51	0
2	294023	93.61	0
2	294339	93.71	0
2	294655	93.81	0
2	294971	93.91	0
2	295293	94.01	0
2	295609	94.11	0
2	295925	94.21	0
2	296241	94.31	0
2	296557	94.41	0
2	296873	94.51	0
2	297189	94.61	0
2	297505	94.71	0
2	297821	94.81	0
2	298137	94.91	0
2	298459	95.01	0
2	298775	95.11	0
2	299091	95.21	0
2	299407	95.31	0
2	299723	95.41	0
2	300039	95.51	0
2	300355	95.61	0
2	300671	95.71	0
2	300987	95.81	0
2	301303	95.91	0
2	301625	96.01	0
2	301941	96.11	0
2	302257	96.21	0
2	302573	96.31	0
2	302889	96.41	0
2	303205	96.51	0
2	303521	96.61	0
2	303837	96.71	0
2	304153	96.81	0
2	304469	96.91	0
2	304791	97.01	0
2	305107	97.11	0
2	305423	97.21	0
2	305739	97.31	0
2	306055	97.41	0
2	306371	97.51	0
2	306687	97.61	0
2	307003	97.71	0
2	307319	97.81	0
2	307635	97.91	0
2	307957	98.01	0
2	308273	98.11	0
2	308589	98.21	0
2	308905	98.31	0
2	309221	98.41	0
2	309537	98.51	0
2	309853	98.61	0
2	310169	98.71	0
2	310485	98.81	0
2	310801	98.91	0
2	311123	99.01	0
2	311439	99.11	0
2	311755	99.21	0
2	312071	99.31	0
2	312387	99.41	0
2	312703	99.51	0
2	313019	99.61	0
2	313335	99.71	0
2	313651	99.81	0
2	313967	99.91	0
3	113	1.11	0.000179096
3	429	1.21	0.000340852
3	745	1.31	0.000467435
3	1061	1.41	0.000562893
3	1377	1.51	0.000631106
3	1693	1.61	0.000675745
3	2009	1.71	0.000700245
3	2325	1.81	0.000707784
3	2641	1.91	0.000701273
3	2963	2.01	0.000683354
3	3279	2.11	0.000656398
3	3595	2.21	0.000622512
3	3911	2.31	0.000583548
3	4227	2.41	0.000541117
3	4543	2.51	0.000496604
3	4859	2.61	0.000451181
3	5175	2.71	0.000405825
3	5491	2.81	0.00036134
3	5807	2.91	0.000318365
3	6129	3.01	0.0002774
3	6445	3.11	0.00023882
3	6761	3.21	0.000202887
3	7077	3.31	0.00016977
3	7393	3.41	0.000139558
3	7709	3.51	0.000112271
3	8025	3.61	8.78717e-05
3	8341	3.71	6.628e-05
3	8657	3.81	4.73785e-05
3	8973	3.91	3.1023e-05
3	9295	4.01	1.70493e-05
3	9611	4.11	5.28023e-06
3	9927	4.21	-4.46922e-06
3	10243	4.31	-1.2387e-05
3	10559	4.41	-1.86602e-05
3	10875	4.51	-2.34717e-05
3	11191	4.61	-2.69978e-05
3	11507	4.71	-2.94062e-05
3	11823	4.81	-3.08545e-05
3	12139	4.91	-3.14892e-05
3	12461	5.01	-3.14451e-05
3	12777	5.11	-3.0845e-05
3	13093	5.21	-2.97994e-05
3	13409	5.31	-2.84072e-05
3	13725	5.41	-2.67556e-05
3	14041	5.51	-2.49208e-05
3	14357	5.61	-2.29687e-05
3	14673	5.71	-2.09553e-05
3	14989	5.81	-1.89277e-05
3	15305	5.91	-1.6925e-05
3	15627	6.01	-1.49784e-05
3	15943	6.11	-1.31129e-05
3	16259	6.21	-1.13474e-05
3	16575	6.31	-9.69553e-06
3	16891	6.41	-8.16651e-06
3	17207	6.51	-6.76571e-06
3	17523	6.61	-5.49522e-06
3	17839	6.71	-4.35441e-06
3	18155	6.81	-3.34045e-06
3	18471	6.91	-2.44874e-06
3	18793	7.01	-1.6733e-06
3	19109	7.11	-1.00716e-06
3	19425	7.21	-4.42628e-07
3	19741	7.31	2.84224e-08
3	20057	7.41	4.14339e-07
3	20373	7.51	7.23492e-07
3	20689	7.61	9.6413e-07
3	21005	7.71	1.14424e-06
3	21321	7.81	1.27148e-06
3	21637	7.91	1.35305e-06
3	21959	8.01	1.3957e-06
3	22275	8.11	1.40565e-06
3	22591	8.21	1.3886e-06
3	22907	8.31	1.34971e-06
3	23223	8.41	1.2936e-06
3	23539	8.51	1.22437e-06
3	23855	8.61	1.14561e-06
3	24171	8.71	1.06046e-06
3	24487	8.81	9.71582e-07
3	24803	8.91	8.81246e-07
3	25125	9.01	7.91334e-07
3	25441	9.11	7.03381e-07
3	25757	9.21	6.18613e-07
3	26073	9.31	5.37979e-07
3	26389	9.41	4.62183e-07
3	26705	9.51	3.91714e-07
3	27021	9.61	3.26878e-07
3	27337	9.71	2.67827e-07
3	27653	9.81	2.14581e-07
3	27969	9.91	1.67052e-07
3	29349	10.01	1.25066e-07
3	29665	10.11	8.83794e-08
3	29981	10.21	5.66978e-08
3	30297	10.31	2.96922e-08
3	30613	10.41	7.00453e-09
3	30929	10.51	-1.17325e-08
3	31245	10.61	-2.68933e-08
3	31561	10.71	-3.88482e-08
3	31877	10.81	-4.79581e-08
3	32193	10.91	-5.45704e-08
3	32515	11.01	-5.90177e-08
3	32831	11.11	-6.16069e-08
3	33147	11.21	-6.26265e-08
3	33463	11.31	-6.23395e-08
3	33779	11.41	-6.09859e-08
3	34095	11.51	-5.87811e-08
3	34411	11.61	-5.59183e-08
3	34727	11.71	-5.25674e-08
3	35043	11.81	-4.88761e-08
3	35359	11.91	-4.4971e-08
3	35681	12.01	-4.09599e-08
3	35997	12.11	-3.69354e-08
3	36313	12.21	-3.29713e-08
3	36629	12.31	-2.9128e-08
3	36945	12.41	-2.54531e-08
3	37261	12.51	-2.19821e-08
3	37577	12.61	-1.87399e-08
3	37893	12.71	-1.57428e-08
3	38209	12.81	-1.30029e-08
3	38525	12.91	-1.05217e-08
3	38847	13.01	-8.29772e-09
3	39163	13.11	-6.32454e-09
3	39479	13.21	-4.59224e-09
3	39795	13.31	-3.08802e-09
3	40111	13.41	-1.79838e-09
3	40427	13.51	-7.08411e-10
3	40743	13.61	1.98241e-10
3	41059	13.71	9.37916e-10
3	41375	13.81	1.52767e-09
3	41691	13.91	1.98384e-09
3	42013	14.01	2.32276e-09
3	42329	14.11	2.55937e-09
3	42645	14.21	2.70788e-09
3	42961	14.31	2.78249e-09
3	43277	14.41	2.79243e-09
3	43593	14.51	2.7498e-09
3	43909	14.61	2.66525e-09
3	44225	14.71	2.54872e-09
3	44541	14.81	2.40803e-09
3	44857	14.91	2.24887e-09
3	45179	15.01	2.07763e-09
3	45495	15.11	1.89999e-09
3	45811	15.21	1.72236e-09
3	46127	15.31	1.54472e-09
3	46443	15.41	1.37064e-09
3	46759	15.51	1.20295e-09
3	47075	15.61	1.04379e-09
3	47391	15.71	8.94573e-10
3	47707	15.81	7.56017e-10
3	48023	15.91	6.29541e-10
3	48345	16.01	5.13012e-10
3	48661	16.11	4.09273e-10
3	48977	16.21	3.16902e-10
3	49293	16.31	2.3519e-10
3	49609	16.41	1.63425e-10
3	49925	16.51	1.02318e-10
3	50241	16.61	4.9738e-11
3	50557	16.71	5.68434e-12
3	50873	16.81	-3.05533e-11
3	51189	16.91	-5.8975e-11
3	51511	17.01	-8.10019e-11
3	51827	17.11	-9.80549e-11
3	52143	17.21	-1.11555e-10
3	52459	17.31	-1.18661e-10
3	52775	17.41	-1.23634e-10
3	53091	17.51	-1.23634e-10
3	53407	17.61	-1.23634e-10
3	53723	17.71	-1.21503e-10
3	54039	17.81	-1.14397e-10
3	54355	17.91	-1.07292e-10
3	54677	18.01	-1.00187e-10
3	54993	18.11	-9.30811e-11
3	55309	18.21	-8.59757e-11
3	55625	18.31	-7.88702e-11
3	55941	18.41	-7.17648e-11
3	56257	18.51	-6.46594e-11
3	56573	18.61	-5.7554e-11
3	56889	18.71	-5.04485e-11
3	57205	18.81	-4.33431e-11
3	57521	18.91	-3.62377e-11
3	57843	19.01	-2.91323e-11
3	58159	19.11	-2.20268e-11
3	58475	19.21	-1.7053e-11
3	58791	19.31	-1.49214e-11
3	59107	19.41	-1.35003e-11
3	59423	19.51	-1.27898e-11
3	59739	19.61	-1.13687e-11
3	60055	19.71	-9.9476e-12
3	60371	19.81	-9.23706e-12
3	60687	19.91	-8.52651e-12
3	61009	20.01	-7.81597e-12
3	61325	20.11	-7.10543e-12
3	61641	20.21	-6.39488e-12
3	61957	20.31	-5.68434e-12
3	62273	20.41	-4.9738e-12
3	62589	20.51	-4.26326e-12
3	62905	20.61	-4.26326e-12
3	63221	20.71	-3.55271e-12
3	63537	20.81	-3.55271e-12
3	63853	20.91	-2.84217e-12
3	64175	21.01	-2.84217e-12
3	64491	21.11	-2.84217e-12
3	64807	21.21	-2.13163e-12
3	65123	21.31	-2.13163e-12
3	65439	21.41	-2.13163e-12
3	65755	21.51	-1.42109e-12
3	66071	21.61	-1.42109e-12
3	66387	21.71	-1.42109e-12
3	66703	21.81	-1.42109e-12
3	67019	21.91	-1.42109e-12
3	67341	22.01	-7.10543e-13
3	67657	22.11	-7.10543e-13
3	67973	22.21	-7.10543e-13
3	68289	22.31	-7.10543e-13
3	68605	22.41	-7.10543e-13
3	68921	22.51	-7.10543e-13
3	69237	22.61	-7.10543e-13
3	69553	22.71	-7.10543e-13
3	69869	22.81	-7.10543e-13
3	70185	22.91	-7.10543e-13
3	70507	23.01	0
3	70823	23.11	0
3	71139	23.21	0
3	71455	23.31	0
3	71771	23.41	0
3	72087	23.51	0
3	72403	23.61	0
3	72719	23.71	0
3	73035	23.81	0
3	73351	23.91	0
3	73673	24.01	0
3	73989	24.11	0
3	74305	24.21	0
3	74621	24.31	0
3	74937	24.41	0
3	75253	24.51	0
3	75569	24.61	0
3	75885	24.71	0
3	76201	24.81	0
3	76517	24.91	0
3	76839	25.01	0
3	77155	25.11	0
3	77471	25.21	0
3	77787	25.31	0
3	78103	25.41	0
3	78419	25.51	0
3	78735	25.61	0
3	79051	25.71	0
3	79367	25.81	0
3	79683	25.91	0
3	80005	26.01	0
3	80321	26.11	0
3	80637	26.21	0
3	80953	26.31	0
3	81269	26.41	0
3	81585	26.51	0
3	81901	26.61	0
3	82217	26.71	0
3	82533	26.81	0
3	82849	26.91	0
3	83171	27.01	0
3	83487	27.11	0
3	83803	27.21	0
3	84119	27.31	0
3	84435	27.41	0
3	84751	27.51	0
3	85067	27.61	0
3	85383	27.71	0
3	85699	27.81	0
3	86015	27.91	0
3	86337	28.01	0
3	86653	28.11	0
3	86969	28.21	0
3	87285	28.31	0
3	87601	28.41	0
3	87917	28.51	0
3	88233	28.61	0
3	88549	28.71	0
3	88865	28.81	0
3	89181	28.91	0
3	89503	29.01	0
3	89819	29.11	0
3	90135	29.21	0
3	90451	29.31	0
3	90767	29.41	0
3	91083	29.51	0
3	91399	29.61	0
3	91715	29.71	0
3	92031	29.81	0
3	92347	29.91	0
3	92669	30.01	0
3	92985	30.11	0
3	93301	30.21	0
3	93617	30.31	0
3	93933	30.41	0
3	94249	30.51	0
3	94565	30.61	0
3	94881	30.71	0
3	95197	30.81	0
3	95513	30.91	0
3	95835	31.01	0
3	96151	31.11	0
3	96467	31.21	0
3	96783	31.31	0
3	97099	31.41	0
3	97415	31.51	0
3	97731	31.61	0
3	98047	31.71	0
3	98363	31.81	0
3	98679	31.91	0
3	99001	32.01	0
3	99317	32.11	0
3	99633	32.21	0
3	99949	32.31	0
3	100265	32.41	0
3	100581	32.51	0
3	100897	32.61	0
3	101213	32.71	0
3	101529	32.81	0
3	101845	32.91	0
3	102167	33.01	0
3	102483	33.11	0
3	102799	33.21	0
3	103115	33.31	0
3	103431	33.41	0
3	103747	33.51	0
3	104063	33.61	0
3	104379	33.71	0
3	104695	33.81	0
3	105011	33.91	0
3	105333	34.01	0
3	105649	34.11	0
3	105965	34.21	0
3	106281	34.31	0
3	106597	34.41	0
3	106913	34.51	0
3	107229	34.61	0
3	107545	34.71	0
3	107861	34.81	0
3	108177	34.91	0
3	108499	35.01	0
3	108815	35.11	0
3	109131	35.21	0
3	109447	35.31	0
3	109763	35.41	0
3	110079	35.51	0
3	110395	35.61	0
3	110711	35.71	0
3	111027	35.81	0
3	111343	35.91	0
3	111665	36.01	0
3	111981	36.11	0
3	112297	36.21	0
3	112613	36.31	0
3	112929	36.41	0
3	113245	36.51	0
3	113561	36.61	0
3	113877	36.71	0
3	114193	36.81	0
3	114509	36.91	0
3	114831	37.01	0
3	115147	37.11	0
3	115463	37.21	0
3	115779	37.31	0
3	116095	37.41	0
3	116411	37.51	0
3	116727	37.61	0
3	117043	37.71	0
3	117359	37.81	0
3	117675	37.91	0
3	117997	38.01	0
3	118313	38.11	0
3	118629	38.21	0
3	118945	38.31	0
3	119261	38.41	0
3	119577	38.51	0
3	119893	38.61	0
3	120209	38.71	0
3	120525	38.81	0
3	120841	38.91	0
3	121163	39.01	0
3	121479	39.11	0
3	121795	39.21	0
3	122111	39.31	0
3	122427	39.41	0
3	122743	39.51	0
3	123059	39.61	0
3	123375	39.71	0
3	123691	39.81	0
3	124007	39.91	0
3	124329	40.01	0
3	124645	40.11	0
3	124961	40.21	0
3	125277	40.31	0
3	125593	40.41	0
3	125909	40.51	0
3	126225	40.61	0
3	126541	40.71	0
3	126857	40.81	0
3	127173	40.91	0
3	127495	41.01	0
3	127811	41.11	0
3	128127	41.21	0
3	128443	41.31	0
3	128759	41.41	0
3	129075	41.51	0
3	129391	41.61	0
3	129707	41.71	0
3	130023	41.81	0
3	130339	41.91	0
3	130661	42.01	0
3	130977	42.11	0
3	131293	42.21	0
3	131609	42.31	0
3	131925	42.41	0
3	132241	42.51	0
3	132557	42.61	0
3	132873	42.71	0
3	133189	42.81	0
3	133505	42.91	0
3	133827	43.01	0
3	134143	43.11	0
3	134459	43.21	0
3	134775	43.31	0
3	135091	43.41	0
3	135407	43.51	0
3	135723	43.61	0
3	136039	43.71	0
3	136355	43.81	0
3	136671	43.91	0
3	136993	44.01	0
3	137309	44.11	0
3	137625	44.21	0
3	137941	44.31	0
3	138257	44.41	0
3	138573	44.51	0
3	138889	44.61	0
3	139205	44.71	0
3	139521	44.81	0
3	139837	44.91	0
3	140159	45.01	0
3	140475	45.11	0
3	140791	45.21	0
3	141107	45.31	0
3	141423	45.41	0
3	141739	45.51	0
3	142055	45.61	0
3	142371	45.71	0
3	142687	45.81	0
3	143003	45.91	0
3	143325	46.01	0
3	143641	46.11	0
3	143957	46.21	0
3	144273	46.31	0
3	144589	46.41	0
3	144905	46.51	0
3	145221	46.61	0
3	145537	46.71	0
3	145853	46.81	0
3	146169	46.91	0
3	146491	47.01	0
3	146807	47.11	0
3	147123	47.21	0
3	147439	47.31	0
3	147755	47.41	0
3	148071	47.51	0
3	148387	47.61	0
3	148703	47.71	0
3	149019	47.81	0
3	149335	47.91	0
3	149657	48.01	0
3	149973	48.11	0
3	150289	48.21	0
3	150605	48.31	0
3	150921	48.41	0
3	151237	48.51	0
3	151553	48.61	0
3	151869	48.71	0
3	152185	48.81	0
3	152501	48.91	0
3	152823	49.01	0
3	153139	49.11	0
3	153455	49.21	0
3	153771	49.31	0
3	154087	49.41	0
3	154403	49.51	0
3	154719	49.61	0
3	155035	49.71	0
3	155351	49.81	0
3	155667	49.91	0
3	155989	50.01	0
3	156305	50.11	0
3	156621	50.21	0
3	156937	50.31	0
3	157253	50.41	0
3	157569	50.51	0
3	157885	50.61	0
3	158201	50.71	0
3	158517	50.81	0
3	158833	50.91	0
3	159155	51.01	0
3	159471	51.11	0
3	159787	51.21	0
3	160103	51.31	0
3	160419	51.41	0
3	160735	51.51	0
3	161051	51.61	0
3	161367	51.71	0
3	161683	51.81	0
3	161999	51.91	0
3	162321	52.01	0
3	162637	52.11	0
3	162953	52.21	0
3	163269	52.31	0
3	163585	52.41	0
3	163901	52.51	0
3	164217	52.61	0
3	164533	52.71	0
3	164849	52.81	0
3	165165	52.91	0
3	165487	53.01	0
3	165803	53.11	0
3	166119	53.21	0
3	166435	53.31	0
3	166751	53.41	0
3	167067	53.51	0
3	167383	53.61	0
3	167699	53.71	0
3	168015	53.81	0
3	168331	53.91	0
3	168653	54.01	0
3	168969	54.11	0
3	169285	54.21	0
3	169601	54.31	0
3	169917	54.41	0
3	170233	54.51	0
3	170549	54.61	0
3	170865	54.71	0
3	171181	54.81	0
3	171497	54.91	0
3	171819	55.01	0
3	172135	55.11	0
3	172451	55.21	0
3	172767	55.31	0
3	173083	55.41	0
3	173399	55.51	0
3	173715	55.61	0
3	174031	55.71	0
3	174347	55.81	0
3	174663	55.91	0
3	174985	56.01	0
3	175301	56.11	0
3	175617	56.21	0
3	175933	56.31	0
3	176249	56.41	0
3	176565	56.51	0
3	176881	56.61	0
3	177197	56.71	0
3	177513	56.81	0
3	177829	56.91	0
3	178151	57.01	0
3	178467	57.11	0
3	178783	57.21	0
3	179099	57.31	0
3	179415	57.41	0
3	179731	57.51	0
3	180047	57.61	0
3	180363	57.71	0
3	180679	57.81	0
3	180995	57.91	0
3	181317	58.01	0
3	181633	58.11	0
3	181949	58.21	0
3	182265	58.31	0
3	182581	58.41	0
3	182897	58.51	0
3	183213	58.61	0
3	183529	58.71	0
3	183845	58.81	0
3	184161	58.91	0
3	184483	59.01	0
3	184799	59.11	0
3	185115	59.21	0
3	185431	59.31	0
3	185747	59.41	0
3	186063	59.51	0
3	186379	59.61	0
3	186695	59.71	0
3	187011	59.81	0
3	187327	59.91	0
3	187649	60.01	0
3	187965	60.11	0
3	188281	60.21	0
3	188597	60.31	0
3	188913	60.41	0
3	189229	60.51	0
3	189545	60.61	0
3	189861	60.71	0
3	190177	60.81	0
3	190493	60.91	0
3	190815	61.01	0
3	191131	61.11	0
3	191447	61.21	0
3	191763	61.31	0
3	192079	61.41	0
3	192395	61.51	0
3	192711	61.61	0
3	193027	61.71	0
3	193343	61.81	0
3	193659	61.91	0
3	193981	62.01	0
3	194297	62.11	0
3	194613	62.21	0
3	194929	62.31	0
3	195245	62.41	0
3	195561	62.51	0
3	195877	62.61	0
3	196193	62.71	0
3	196509	62.81	0
3	196825	62.91	0
3	197147	63.01	0
3	197463	63.11	0
3	197779	63.21	0
3	198095	63.31	0
3	198411	63.41	0
3	198727	63.51	0
3	199043	63.61	0
3	199359	63.71	0
3	199675	63.81	0
3	199991	63.91	0
3	200313	64.01	0
3	200629	64.11	0
3	200945	64.21	0
3	201261	64.31	0
3	201577	64.41	0
3	201893	64.51	0
3	202209	64.61	0
3	202525	64.71	0
3	202841	64.81	0
3	203157	64.91	0
3	203479	65.01	0
3	203795	65.11	0
3	204111	65.21	0
3	204427	65.31	0
3	204743	65.41	0
3	205059	65.51	0
3	205375	65.61	0
3	205691	65.71	0
3	206007	65.81	0
3	206323	65.91	0
3	206645	66.01	0
3	206961	66.11	0
3	207277	66.21	0
3	207593	66.31	0
3	207909	66.41	0
3	208225	66.51	0
3	208541	66.61	0
3	208857	66.71	0
3	209173	66.81	0
3	209489	66.91	0
3	209811	67.01	0
3	210127	67.11	0
3	210443	67.21	0
3	210759	67.31	0
3	211075	67.41	0
3	211391	67.51	0
3	211707	67.61	0
3	212023	67.71	0
3	212339	67.81	0
3	212655	67.91	0
3	212977	68.01	0
3	213293	68.11	0
3	213609	68.21	0
3	213925	68.31	0
3	214241	68.41	0
3	214557	68.51	0
3	214873	68.61	0
3	215189	68.71	0
3	215505	68.81	0
3	215821	68.91	0
3	216143	69.01	0
3	216459	69.11	0
3	216775	69.21	0
3	217091	69.31	0
3	217407	69.41	0
3	217723	69.51	0
3	218039	69.61	0
3	218355	69.71	0
3	218671	69.81	0
3	218987	69.91	0
3	219309	70.01	0
3	219625	70.11	0
3	219941	70.21	0
3	220257	70.31	0
3	220573	70.41	0
3	220889	70.51	0
3	221205	70.61	0
3	221521	70.71	0
3	221837	70.81	0
3	222153	70.91	0
3	222475	71.01	0
3	222791	71.11	0
3	223107	71.21	0
3	223423	71.31	0
3	223739	71.41	0
3	224055	71.51	0
3	224371	71.61	0
3	224687	71.71	0
3	225003	71.81	0
3	225319	71.91	0
3	225641	72.01	0
3	225957	72.11	0
3	226273	72.21	0
3	226589	72.31	0
3	226905	72.41	0
3	227221	72.51	0
3	227537	72.61	0
3	227853	72.71	0
3	228169	72.81	0
3	228485	72.91	0
3	228807	73.01	0
3	229123	73.11	0
3	229439	73.21	0
3	229755	73.31	0
3	230071	73.41	0
3	230387	73.51	0
3	230703	73.61	0
3	231019	73.71	0
3	231335	73.81	0
3	231651	73.91	0
3	231973	74.01	0
3	232289	74.11	0
3	232605	74.21	0
3	232921	74.31	0
3	233237	74.41	0
3	233553	74.51	0
3	233869	74.61	0
3	234185	74.71	0
3	234501	74.81	0
3	234817	74.91	0
3	235139	75.01	0
3	235455	75.11	0
3	235771	75.21	0
3	236087	75.31	0
3	236403	75.41	0
3	236719	75.51	0
3	237035	75.61	0
3	237351	75.71	0
3	237667	75.81	0
3	237983	75.91	0
3	238305	76.01	0
3	238621	76.11	0
3	238937	76.21	0
3	239253	76.31	0
3	239569	76.41	0
3	239885	76.51	0
3	240201	76.61	0
3	240517	76.71	0
3	240833	76.81	0
3	241149	76.91	0
3	241471	77.01	0
3	241787	77.11	0
3	242103	77.21	0
3	242419	77.31	0
3	242735	77.41	0
3	243051	77.51	0
3	243367	77.61	0
3	243683	77.71	0
3	243999	77.81	0
3	244315	77.91	0
3	244637	78.01	0
3	244953	78.11	0
3	245269	78.21	0
3	245585	78.31	0
3	245901	78.41	0
3	246217	78.51	0
3	246533	78.61	0
3	246849	78.71	0
3	247165	78.81	0
3	247481	78.91	0
3	247803	79.01	0
3	248119	79.11	0
3	248435	79.21	0
3	248751	79.31	0
3	249067	79.41	0
3	249383	79.51	0
3	249699	79.61	0
3	250015	79.71	0
3	250331	79.81	0
3	250647	79.91	0
3	250969	80.01	0
3	251285	80.11	0
3	251601	80.21	0
3	251917	80.31	0
3	252233	80.41	0
3	252549	80.51	0
3	252865	80.61	0
3	253181	80.71	0
3	253497	80.81	0
3	253813	80.91	0
3	254135	81.01	0
3	254451	81.11	0
3	254767	81.21	0
3	255083	81.31	0
3	255399	81.41	0
3	255715	81.51	0
3	256031	81.61	0
3	256347	81.71	0
3	256663	81.81	0
3	256979	81.91	0
3	257301	82.01	0
3	257617	82.11	0
3	257933	82.21	0
3	258249	82.31	0
3	258565	82.41	0
3	258881	82.51	0
3	259197	82.61	0
3	259513	82.71	0
3	259829	82.81	0
3	260145	82.91	0
3	260467	83.01	0
3	260783	83.11	0
3	261099	83.21	0
3	261415	83.31	0
3	261731	83.41	0
3	262047	83.51	0
3	262363	83.61	0
3	262679	83.71	0
3	262995	83.81	0
3	263311	83.91	0
3	263633	84.01	0
3	263949	84.11	0
3	264265	84.21	0
3	264581	84.31	0
3	264897	84.41	0
3	265213	84.51	0
3	265529	84.61	0
3	265845	84.71	0
3	266161	84.81	0
3	266477	84.91	0
3	266799	85.01	0
3	267115	85.11	0
3	267431	85.21	0
3	267747	85.31	0
3	268063	85.41	0
3	268379	85.51	0
3	268695	85.61	0
3	269011	85.71	0
3	269327	85.81	0
3	269643	85.91	0
3	269965	86.01	0
3	270281	86.11	0
3	270597	86.21	0
3	270913	86.31	0
3	271229	86.41	0
3	271545	86.51	0
3	271861	86.61	0
3	272177	86.71	0
3	272493	86.81	0
3	272809	86.91	0
3	273131	87.01	0
3	273447	87.11	0
3	273763	87.21	0
3	274079	87.31	0
3	274395	87.41	0
3	274711	87.51	0
3	275027	87.61	0
3	275343	87.71	0
3	275659	87.81	0
3	275975	87.91	0
3	276297	88.01	0
3	276613	88.11	0
3	276929	88.21	0
3	277245	88.31	0
3	277561	88.41	0
3	277877	88.51	0
3	278193	88.61	0
3	278509	88.71	0
3	278825	88.81	0
3	279141	88.91	0
3	279463	89.01	0
3	279779	89.11	0
3	280095	89.21	0
3	280411	89.31	0
3	280727	89.41	0
3	281043	89.51	0
3	281359	89.61	0
3	281675	89.71	0
3	281991	89.81	0
3	282307	89.91	0
3	282629	90.01	0
3	282945	90.11	0
3	283261	90.21	0
3	283577	90.31	0
3	283893	90.41	0
3	284209	90.51	0
3	284525	90.61	0
3	284841	90.71	0
3	285157	90.81	0
3	285473	90.91	0
3	285795	91.01	0
3	286111	91.11	0
3	286427	91.21	0
3	286743	91.31	0
3	287059	91.41	0
3	287375	91.51	0
3	287691	91.61	0
3	288007	91.71	0
3	288323	91.81	0
3	288639	91.91	0
3	288961	92.01	0
3	289277	92.11	0
3	289593	92.21	0
3	289909	92.31	0
3	290225	92.41	0
3	290541	92.51	0
3	290857	92.61	0
3	291173	92.71	0
3	291489	92.81	0
3	291805	92.91	0
3	292127	93.01	0
3	292443	93.11	0
3	292759	93.21	0
3	293075	93.31	0
3	293391	93.41	0
3	293707	93.51	0
3	294023	93.61	0
3	294339	93.71	0
3	294655	93.81	0
3	294971	93.91	0
3	295293	94.01	0
3	295609	94.11	0
3	295925	94.21	0
3	296241	94.31	0
3	296557	94.41	0
3	296873	94.51	0
3	297189	94.61	0
3	297505	94.71	0
3	297821	94.81	0
3	298137	94.91	0
3	298459	95.01	0
3	298775	95.11	0
3	299091	95.21	0
3	299407	95.31	0
3	299723	95.41	0
3	300039	95.51	0
3	300355	95.61	0
3	300671	95.71	0
3	300987	95.81	0
3	301303	95.91	0
3	301625	96.01	0
3	301941	96.11	0
3	302257	96.21	0
3	302573	96.31	0
3	302889	96.41	0
3	303205	96.51	0
3	303521	96.61	0
3	303837	96.71	0
3	304153	96.81	0
3	304469	96.91	0
3	304791	97.01	0
3	305107	97.11	0
3	305423	97.21	0
3	305739	97.31	0
3	306055	97.41	0
3	306371	97.51	0
3	306687	97.61	0
3	307003	97.71	0
3	307319	97.81	0
3	307635	97.91	0
3	307957	98.01	0
3	308273	98.11	0
3	308589	98.21	0
3	308905	98.31	0
3	309221	98.41	0
3	309537	98.51	0
3	309853	98.61	0
3	310169	98.71	0
3	310485	98.81	0
3	310801	98.91	0
3	311123	99.01	0
3	311439	99.11	0
3	311755	99.21	0
3	312071	99.31	0
3	312387	99.41	0
3	312703	99.51	0
3	313019	99.61	0
3	313335	99.71	0
3	313651	99.81	0
3	313967	99.91	0
4	113	1.11	0.00109259
4	429	1.21	0.00106709
4	745	1.31	0.00102704
4	1061	1.41	0.000975759
4	1377	1.51	0.00091619
4	1693	1.61	0.000850891
4	2009	1.71	0.000782061
4	2325	1.81	0.00071157
4	2641	1.91	0.00064098
4	2963	2.01	0.000571575
4	3279	2.11	0.000504387
4	3595	2.21	0.000440223
4	3911	2.31	0.000379691
4	4227	2.41	0.000323223
4	4543	2.51	0.000271102
4	4859	2.61	0.000223482
4	5175	2.71	0.000180409
4	5491	2.81	0.000141839
4	5807	2.91	0.000107653
4	6129	3.01	7.76787e-05
4	6445	3.11	5.16957e-05
4	6761	3.21	2.94534e-05
4	7077	3.31	1.06787e-05
4	7393	3.41	-4.91459e-06
4	7709	3.51	-1.76184e-05
4	8025	3.61	-2.7724e-05
4	8341	3.71	-3.55168e-05
4	8657	3.81	-4.12726e-05
4	8973	3.91	-4.52541e-05
4	9295	4.01	-4.77086e-05
4	9611	4.11	-4.88665e-05
4	9927	4.21	-4.89399e-05
4	10243	4.31	-4.81224e-05
4	10559	4.41	-4.65886e-05
4	10875	4.51	-4.44947e-05
4	11191	4.61	-4.1979e-05
4	11507	4.71	-3.91623e-05
4	11823	4.81	-3.61492e-05
4	12139	4.91	-3.3029e-05
4	12461	5.01	-2.9877e-05
4	12777	5.11	-2.67554e-05
4	13093	5.21	-2.37147e-05
4	13409	5.31	-2.07949e-05
4	13725	5.41	-1.80267e-05
4	14041	5.51	-1.54325e-05
4	14357	5.61	-1.30275e-05
4	14673	5.71	-1.0821e-05
4	14989	5.81	-8.81673e-06
4	15305	5.91	-7.01443e-06
4	15627	6.01	-5.4101e-06
4	15943	6.11	-3.99696e-06
4	16259	6.21	-2.766e-06
4	16575	6.31	-1.70658e-06
4	16891	6.41	-8.06872e-07
4	17207	6.51	-5.43281e-08
4	17523	6.61	5.63994e-07
[...]
73	263577	84	0
73	266743	85	0
73	269909	86	0
73	273075	87	0
73	276241	88	0
73	279407	89	0
73	282573	90	0
73	285739	91	0
73	288905	92	0
73	292071	93	0
73	295237	94	0
73	298403	95	0
73	301569	96	0
73	304735	97	0
73	307901	98	0
73	311067	99	0
73	314233	100	0
74	2908	2	2
74	6074	3	2
74	9240	4	2
74	12406	5	2
74	15572	6	2
74	18738	7	2
74	21904	8	2
74	25070	9	2
74	28237	10	2
74	32460	11	2
74	35626	12	2
74	38792	13	2
74	41958	14	2
74	45124	15	2
74	48290	16	2
74	51456	17	2
74	54622	18	2
74	57788	19	2
74	60954	20	2
74	64120	21	2
74	67286	22	2
74	70452	23	2
74	73618	24	2
74	76784	25	2
74	79950	26	2
74	83116	27	2
74	86282	28	2
74	89448	29	2
74	92614	30	2
74	95780	31	2
74	98946	32	2
74	102112	33	2
74	105278	34	2
74	108444	35	2
74	111610	36	2
74	114776	37	2
74	117942	38	2
74	121108	39	2
74	124274	40	2
74	127440	41	2
74	130606	42	2
74	133772	43	2
74	136938	44	2
74	140104	45	2
74	143270	46	2
74	146436	47	2
74	149602	48	2
74	152768	49	2
74	155934	50	2
74	159100	51	2
74	162266	52	2
74	165432	53	2
74	168598	54	2
74	171764	55	2
74	174930	56	2
74	178096	57	2
74	181262	58	2
74	184428	59	2
74	187594	60	2
74	190760	61	2
74	193926	62	2
74	197092	63	2
74	200258	64	2
74	203424	65	2
74	206590	66	2
74	209756	67	2
74	212922	68	2
74	216088	69	2
74	219254	70	2
74	222420	71	2
74	225586	72	2
74	228752	73	2
74	231918	74	2
74	235084	75	2
74	238250	76	2
74	241416	77	2
74	244582	78	2
74	247748	79	2
74	250914	80	2
74	254080	81	2
74	257246	82	2
74	260412	83	2
74	263578	84	2
74	266744	85	2
74	269910	86	2
74	273076	87	2
74	276242	88	2
74	279408	89	2
74	282574	90	2
74	285740	91	2
74	288906	92	2
74	292072	93	2
74	295238	94	2
74	298404	95	2
74	301570	96	2
74	304736	97	2
74	307902	98	2
74	311068	99	2
74	314234	100	2
75	2908	2	0.016544
75	6074	3	0.01873
75	9240	4	0.01873
75	12406	5	0.01873
75	15572	6	0.01873
75	18738	7	0.01873
75	21904	8	0.01873
75	25070	9	0.01873
75	28237	10	0.01873
75	32460	11	0.020297160114
75	35626	12	0.01873
75	38792	13	0.01873
75	41958	14	0.01873
75	45124	15	0.01873
75	48290	16	0.01873
75	51456	17	0.01873
75	54622	18	0.01873
75	57788	19	0.01873
75	60954	20	0.01873
75	64120	21	0.01873
75	67286	22	0.01873
75	70452	23	0.01873
75	73618	24	0.01873
75	76784	25	0.01873
75	79950	26	0.01873
75	83116	27	0.01873
75	86282	28	0.01873
75	89448	29	0.01873
75	92614	30	0.01873
75	95780	31	0.01873
75	98946	32	0.01873
75	102112	33	0.01873
75	105278	34	0.01873
75	108444	35	0.01873
75	111610	36	0.01873
75	114776	37	0.01873
75	117942	38	0.01873
75	121108	39	0.01873
75	124274	40	0.01873
75	127440	41	0.01873
75	130606	42	0.01873
75	133772	43	0.01873
75	136938	44	0.01873
75	140104	45	0.01873
75	143270	46	0.01873
75	146436	47	0.01873
75	149602	48	0.01873
75	152768	49	0.01873
75	155934	50	0.01873
75	159100	51	0.01873
75	162266	52	0.01873
75	165432	53	0.01873
75	168598	54	0.01873
75	171764	55	0.01873
75	174930	56	0.01873
75	178096	57	0.01873
75	181262	58	0.01873
75	184428	59	0.01873
75	187594	60	0.01873
75	190760	61	0.01873
75	193926	62	0.01873
75	197092	63	0.01873
75	200258	64	0.01873
75	203424	65	0.01873
75	206590	66	0.01873
75	209756	67	0.01873
75	212922	68	0.01873
75	216088	69	0.01873
75	219254	70	0.01873
75	222420	71	0.01873
75	225586	72	0.01873
75	228752	73	0.01873
75	231918	74	0.01873
75	235084	75	0.01873
75	238250	76	0.01873
75	241416	77	0.01873
75	244582	78	0.01873
75	247748	79	0.01873
75	250914	80	0.01873
75	254080	81	0.01873
75	257246	82	0.01873
75	260412	83	0.01873
75	263578	84	0.01873
75	266744	85	0.01873
75	269910	86	0.01873
75	273076	87	0.01873
75	276242	88	0.01873
75	279408	89	0.01873
75	282574	90	0.01873
75	285740	91	0.01873
75	288906	92	0.01873
75	292072	93	0.01873
75	295238	94	0.01873
75	298404	95	0.01873
75	301570	96	0.01873
75	304736	97	0.01873
75	307902	98	0.01873
75	311068	99	0.01873
75	314234	100	0.01873
76	2908	2	0
76	6074	3	0
76	9240	4	0
76	12406	5	0
76	15572	6	0
76	18738	7	0
76	21904	8	0
76	25070	9	0
76	28237	10	0
76	32460	11	0
76	35626	12	0
76	38792	13	0
76	41958	14	0
76	45124	15	0
76	48290	16	0
76	51456	17	0
76	54622	18	0
76	57788	19	0
76	60954	20	0
76	64120	21	0
76	67286	22	0
76	70452	23	0
76	73618	24	0
76	76784	25	0
76	79950	26	0
76	83116	27	0
76	86282	28	0
76	89448	29	0
76	92614	30	0
76	95780	31	0
76	98946	32	0
76	102112	33	0
76	105278	34	0
76	108444	35	0
76	111610	36	0
76	114776	37	0
76	117942	38	0
76	121108	39	0
76	124274	40	0
76	127440	41	0
76	130606	42	0
76	133772	43	0
76	136938	44	0
76	140104	45	0
76	143270	46	0
76	146436	47	0
76	149602	48	0
76	152768	49	0
76	155934	50	0
76	159100	51	0
76	162266	52	0
76	165432	53	0
76	168598	54	0
76	171764	55	0
76	174930	56	0
76	178096	57	0
76	181262	58	0
76	184428	59	0
76	187594	60	0
76	190760	61	0
76	193926	62	0
76	197092	63	0
76	200258	64	0
76	203424	65	0
76	206590	66	0
76	209756	67	0
76	212922	68	0
76	216088	69	0
76	219254	70	0
76	222420	71	0
76	225586	72	0
76	228752	73	0
76	231918	74	0
76	235084	75	0
76	238250	76	0
76	241416	77	0
76	244582	78	0
76	247748	79	0
76	250914	80	0
76	254080	81	0
76	257246	82	0
76	260412	83	0
76	263578	84	0
76	266744	85	0
76	269910	86	0
76	273076	87	0
76	276242	88	0
76	279408	89	0
76	282574	90	0
76	285740	91	0
76	288906	92	0
76	292072	93	0
76	295238	94	0
76	298404	95	0
76	301570	96	0
76	304736	97	0
76	307902	98	0
76	311068	99	0
76	314234	100	0
77	2909	2	3
77	6075	3	3
77	9241	4	3
77	12407	5	3
77	15573	6	3
77	18739	7	3
77	21905	8	3
77	25071	9	3
77	28238	10	3
77	32461	11	3
77	35627	12	3
77	38793	13	3
77	41959	14	3
77	45125	15	3
77	48291	16	3
77	51457	17	3
77	54623	18	3
77	57789	19	3
77	60955	20	3
77	64121	21	3
77	67287	22	3
77	70453	23	3
77	73619	24	3
77	76785	25	3
77	79951	26	3
77	83117	27	3
77	86283	28	3
77	89449	29	3
77	92615	30	3
77	95781	31	3
77	98947	32	3
77	102113	33	3
77	105279	34	3
77	108445	35	3
77	111611	36	3
77	114777	37	3
77	117943	38	3
77	121109	39	3
77	124275	40	3
77	127441	41	3
77	130607	42	3
77	133773	43	3
77	136939	44	3
77	140105	45	3
77	143271	46	3
77	146437	47	3
77	149603	48	3
77	152769	49	3
77	155935	50	3
77	159101	51	3
77	162267	52	3
77	165433	53	3
77	168599	54	3
77	171765	55	3
77	174931	56	3
77	178097	57	3
77	181263	58	3
77	184429	59	3
77	187595	60	3
77	190761	61	3
77	193927	62	3
77	197093	63	3
77	200259	64	3
77	203425	65	3
77	206591	66	3
77	209757	67	3
77	212923	68	3
77	216089	69	3
77	219255	70	3
77	222421	71	3
77	225587	72	3
77	228753	73	3
77	231919	74	3
77	235085	75	3
77	238251	76	3
77	241417	77	3
77	244583	78	3
77	247749	79	3
77	250915	80	3
77	254081	81	3
77	257247	82	3
77	260413	83	3
77	263579	84	3
77	266745	85	3
77	269911	86	3
77	273077	87	3
77	276243	88	3
77	279409	89	3
77	282575	90	3
77	285741	91	3
77	288907	92	3
77	292073	93	3
77	295239	94	3
77	298405	95	3
77	301571	96	3
77	304737	97	3
77	307903	98	3
77	311069	99	3
77	314235	100	3
78	2909	2	0.016545
78	6075	3	0.01873
78	9241	4	0.01873
78	12407	5	0.01873
78	15573	6	0.01873
78	18739	7	0.01873
78	21905	8	0.01873
78	25071	9	0.01873
78	28238	10	0.01873
78	32461	11	0.020275280198
78	35627	12	0.01873
78	38793	13	0.01873
78	41959	14	0.01873
78	45125	15	0.01873
78	48291	16	0.01873
78	51457	17	0.01873
78	54623	18	0.01873
78	57789	19	0.01873
78	60955	20	0.01873
78	64121	21	0.01873
78	67287	22	0.01873
78	70453	23	0.01873
78	73619	24	0.01873
78	76785	25	0.01873
78	79951	26	0.01873
78	83117	27	0.01873
78	86283	28	0.01873
78	89449	29	0.01873
78	92615	30	0.01873
78	95781	31	0.01873
78	98947	32	0.01873
78	102113	33	0.01873
78	105279	34	0.01873
78	108445	35	0.01873
78	111611	36	0.01873
78	114777	37	0.01873
78	117943	38	0.01873
78	121109	39	0.01873
78	124275	40	0.01873
78	127441	41	0.01873
78	130607	42	0.01873
78	133773	43	0.01873
78	136939	44	0.01873
78	140105	45	0.01873
78	143271	46	0.01873
78	146437	47	0.01873
78	149603	48	0.01873
78	152769	49	0.01873
78	155935	50	0.01873
78	159101	51	0.01873
78	162267	52	0.01873
78	165433	53	0.01873
78	168599	54	0.01873
78	171765	55	0.01873
78	174931	56	0.01873
78	178097	57	0.01873
78	181263	58	0.01873
78	184429	59	0.01873
78	187595	60	0.01873
78	190761	61	0.01873
78	193927	62	0.01873
78	197093	63	0.01873
78	200259	64	0.01873
78	203425	65	0.01873
78	206591	66	0.01873
78	209757	67	0.01873
78	212923	68	0.01873
78	216089	69	0.01873
78	219255	70	0.01873
78	222421	71	0.01873
78	225587	72	0.01873
78	228753	73	0.01873
78	231919	74	0.01873
78	235085	75	0.01873
78	238251	76	0.01873
78	241417	77	0.01873
78	244583	78	0.01873
78	247749	79	0.01873
78	250915	80	0.01873
78	254081	81	0.01873
78	257247	82	0.01873
78	260413	83	0.01873
78	263579	84	0.01873
78	266745	85	0.01873
78	269911	86	0.01873
78	273077	87	0.01873
78	276243	88	0.01873
78	279409	89	0.01873
78	282575	90	0.01873
78	285741	91	0.01873
78	288907	92	0.01873
78	292073	93	0.01873
78	295239	94	0.01873
78	298405	95	0.01873
78	301571	96	0.01873
78	304737	97	0.01873
78	307903	98	0.01873
78	311069	99	0.01873
78	314235	100	0.01873
79	2909	2	0
79	6075	3	0
79	9241	4	0
79	12407	5	0
79	15573	6	0
79	18739	7	0
79	21905	8	0
79	25071	9	0
79	28238	10	0
79	32461	11	0
79	35627	12	0
79	38793	13	0
79	41959	14	0
79	45125	15	0
79	48291	16	0
79	51457	17	0
79	54623	18	0
79	57789	19	0
79	60955	20	0
79	64121	21	0
79	67287	22	0
79	70453	23	0
79	73619	24	0
79	76785	25	0
79	79951	26	0
79	83117	27	0
79	86283	28	0
79	89449	29	0
79	92615	30	0
79	95781	31	0
79	98947	32	0
79	102113	33	0
79	105279	34	0
79	108445	35	0
79	111611	36	0
79	114777	37	0
79	117943	38	0
79	121109	39	0
79	124275	40	0
79	127441	41	0
79	130607	42	0
79	133773	43	0
79	136939	44	0
79	140105	45	0
79	143271	46	0
79	146437	47	0
79	149603	48	0
79	152769	49	0
79	155935	50	0
79	159101	51	0
79	162267	52	0
79	165433	53	0
79	168599	54	0
79	171765	55	0
79	174931	56	0
79	178097	57	0
79	181263	58	0
79	184429	59	0
79	187595	60	0
79	190761	61	0
79	193927	62	0
79	197093	63	0
79	200259	64	0
79	203425	65	0
79	206591	66	0
79	209757	67	0
79	212923	68	0
79	216089	69	0
79	219255	70	0
79	222421	71	0
79	225587	72	0
79	228753	73	0
79	231919	74	0
79	235085	75	0
79	238251	76	0
79	241417	77	0
79	244583	78	0
79	247749	79	0
79	250915	80	0
79	254081	81	0
79	257247	82	0
79	260413	83	0
79	263579	84	0
79	266745	85	0
79	269911	86	0
79	273077	87	0
79	276243	88	0
79	279409	89	0
79	282575	90	0
79	285741	91	0
79	288907	92	0
79	292073	93	0
79	295239	94	0
79	298405	95	0
79	301571	96	0
79	304737	97	0
79	307903	98	0
79	311069	99	0
79	314235	100	0
80	2910	2	4
80	6076	3	4
80	9242	4	4
80	12408	5	4
80	15574	6	4
80	18740	7	4
80	21906	8	4
80	25072	9	4
80	28239	10	4
80	32462	11	4
80	35628	12	4
80	38794	13	4
80	41960	14	4
80	45126	15	4
80	48292	16	4
80	51458	17	4
80	54624	18	4
80	57790	19	4
80	60956	20	4
80	64122	21	4
80	67288	22	4
80	70454	23	4
80	73620	24	4
80	76786	25	4
80	79952	26	4
80	83118	27	4
80	86284	28	4
80	89450	29	4
80	92616	30	4
80	95782	31	4
80	98948	32	4
80	102114	33	4
80	105280	34	4
80	108446	35	4
80	111612	36	4
80	114778	37	4
80	117944	38	4
80	121110	39	4
80	124276	40	4
80	127442	41	4
80	130608	42	4
80	133774	43	4
80	136940	44	4
80	140106	45	4
80	143272	46	4
80	146438	47	4
80	149604	48	4
80	152770	49	4
80	155936	50	4
80	159102	51	4
80	162268	52	4
80	165434	53	4
80	168600	54	4
80	171766	55	4
80	174932	56	4
80	178098	57	4
80	181264	58	4
80	184430	59	4
80	187596	60	4
80	190762	61	4
80	193928	62	4
80	197094	63	4
80	200260	64	4
80	203426	65	4
80	206592	66	4
80	209758	67	4
80	212924	68	4
80	216090	69	4
80	219256	70	4
80	222422	71	4
80	225588	72	4
80	228754	73	4
80	231920	74	4
80	235086	75	4
80	238252	76	4
80	241418	77	4
80	244584	78	4
80	247750	79	4
80	250916	80	4
80	254082	81	4
80	257248	82	4
80	260414	83	4
80	263580	84	4
80	266746	85	4
80	269912	86	4
80	273078	87	4
80	276244	88	4
80	279410	89	4
80	282576	90	4
80	285742	91	4
80	288908	92	4
80	292074	93	4
80	295240	94	4
80	298406	95	4
80	301572	96	4
80	304738	97	4
80	307904	98	4
80	311070	99	4
80	314236	100	4
81	2910	2	0.016545
81	6076	3	0.01873
81	9242	4	0.01873
81	12408	5	0.01873
81	15574	6	0.01873
81	18740	7	0.01873
81	21906	8	0.01873
81	25072	9	0.01873
81	28239	10	0.01873
81	32462	11	0.02020224017
81	35628	12	0.01873
81	38794	13	0.01873
81	41960	14	0.01873
81	45126	15	0.01873
81	48292	16	0.01873
81	51458	17	0.01873
81	54624	18	0.01873
81	57790	19	0.01873
81	60956	20	0.01873
81	64122	21	0.01873
81	67288	22	0.01873
81	70454	23	0.01873
81	73620	24	0.01873
81	76786	25	0.01873
81	79952	26	0.01873
81	83118	27	0.01873
81	86284	28	0.01873
81	89450	29	0.01873
81	92616	30	0.01873
81	95782	31	0.01873
81	98948	32	0.01873
81	102114	33	0.01873
81	105280	34	0.01873
81	108446	35	0.01873
81	111612	36	0.01873
81	114778	37	0.01873
81	117944	38	0.01873
81	121110	39	0.01873
81	124276	40	0.01873
81	127442	41	0.01873
81	130608	42	0.01873
81	133774	43	0.01873
81	136940	44	0.01873
81	140106	45	0.01873
81	143272	46	0.01873
81	146438	47	0.01873
81	149604	48	0.01873
81	152770	49	0.01873
81	155936	50	0.01873
81	159102	51	0.01873
81	162268	52	0.01873
81	165434	53	0.01873
81	168600	54	0.01873
81	171766	55	0.01873
81	174932	56	0.01873
81	178098	57	0.01873
81	181264	58	0.01873
81	184430	59	0.01873
81	187596	60	0.01873
81	190762	61	0.01873
81	193928	62	0.01873
81	197094	63	0.01873
81	200260	64	0.01873
81	203426	65	0.01873
81	206592	66	0.01873
81	209758	67	0.01873
81	212924	68	0.01873
81	216090	69	0.01873
81	219256	70	0.01873
81	222422	71	0.01873
81	225588	72	0.01873
81	228754	73	0.01873
81	231920	74	0.01873
81	235086	75	0.01873
81	238252	76	0.01873
81	241418	77	0.01873
81	244584	78	0.01873
81	247750	79	0.01873
81	250916	80	0.01873
81	254082	81	0.01873
81	257248	82	0.01873
81	260414	83	0.01873
81	263580	84	0.01873
81	266746	85	0.01873
81	269912	86	0.01873
81	273078	87	0.01873
81	276244	88	0.01873
81	279410	89	0.01873
81	282576	90	0.01873
81	285742	91	0.01873
81	288908	92	0.01873
81	292074	93	0.01873
81	295240	94	0.01873
81	298406	95	0.01873
81	301572	96	0.01873
81	304738	97	0.01873
81	307904	98	0.01873
81	311070	99	0.01873
81	314236	100	0.01873
82	2910	2	0
82	6076	3	0
82	9242	4	0
82	12408	5	0
82	15574	6	0
82	18740	7	0
82	21906	8	0
82	25072	9	0
82	28239	10	0
82	32462	11	0
82	35628	12	0
82	38794	13	0
82	41960	14	0
82	45126	15	0
82	48292	16	0
82	51458	17	0
82	54624	18	0
82	57790	19	0
82	60956	20	0
82	64122	21	0
82	67288	22	0
82	70454	23	0
82	73620	24	0
82	76786	25	0
82	79952	26	0
82	83118	27	0
82	86284	28	0
82	89450	29	0
82	92616	30	0
82	95782	31	0
82	98948	32	0
82	102114	33	0
82	105280	34	0
82	108446	35	0
82	111612	36	0
82	114778	37	0
82	117944	38	0
82	121110	39	0
82	124276	40	0
82	127442	41	0
82	130608	42	0
82	133774	43	0
82	136940	44	0
82	140106	45	0
82	143272	46	0
82	146438	47	0
82	149604	48	0
82	152770	49	0
82	155936	50	0
82	159102	51	0
82	162268	52	0
82	165434	53	0
82	168600	54	0
82	171766	55	0
82	174932	56	0
82	178098	57	0
82	181264	58	0
82	184430	59	0
82	187596	60	0
82	190762	61	0
82	193928	62	0
82	197094	63	0
82	200260	64	0
82	203426	65	0
82	206592	66	0
82	209758	67	0
82	212924	68	0
82	216090	69	0
82	219256	70	0
82	222422	71	0
82	225588	72	0
82	228754	73	0
82	231920	74	0
82	235086	75	0
82	238252	76	0
82	241418	77	0
82	244584	78	0
82	247750	79	0
82	250916	80	0
82	254082	81	0
82	257248	82	0
82	260414	83	0
82	263580	84	0
82	266746	85	0
82	269912	86	0
82	273078	87	0
82	276244	88	0
82	279410	89	0
82	282576	90	0
82	285742	91	0
82	288908	92	0
82	292074	93	0
82	295240	94	0
82	298406	95	0
82	301572	96	0
82	304738	97	0
82	307904	98	0
82	311070	99	0
82	314236	100	0
83	2911	2	5
83	6077	3	5
83	9243	4	5
83	12409	5	5
83	15575	6	5
83	18741	7	5
83	21907	8	5
83	25073	9	5
83	28240	10	5
83	32463	11	5
83	35629	12	5
83	38795	13	5
83	41961	14	5
83	45127	15	5
83	48293	16	5
83	51459	17	5
83	54625	18	5
83	57791	19	5
83	60957	20	5
83	64123	21	5
83	67289	22	5
83	70455	23	5
83	73621	24	5
83	76787	25	5
83	79953	26	5
83	83119	27	5
83	86285	28	5
83	89451	29	5
83	92617	30	5
83	95783	31	5
83	98949	32	5
83	102115	33	5
83	105281	34	5
83	108447	35	5
83	111613	36	5
83	114779	37	5
83	117945	38	5
83	121111	39	5
83	124277	40	5
83	127443	41	5
83	130609	42	5
83	133775	43	5
83	136941	44	5
83	140107	45	5
83	143273	46	5
83	146439	47	5
83	149605	48	5
83	152771	49	5
83	155937	50	5
83	159103	51	5
83	162269	52	5
83	165435	53	5
83	168601	54	5
83	171767	55	5
83	174933	56	5
83	178099	57	5
83	181265	58	5
83	184431	59	5
83	187597	60	5
83	190763	61	5
83	193929	62	5
83	197095	63	5
83	200261	64	5
83	203427	65	5
83	206593	66	5
83	209759	67	5
83	212925	68	5
83	216091	69	5
83	219257	70	5
83	222423	71	5
83	225589	72	5
83	228755	73	5
83	231921	74	5
83	235087	75	5
83	238253	76	5
83	241419	77	5
83	244585	78	5
83	247751	79	5
83	250917	80	5
83	254083	81	5
83	257249	82	5
83	260415	83	5
83	263581	84	5
83	266747	85	5
83	269913	86	5
83	273079	87	5
83	276245	88	5
83	279411	89	5
83	282577	90	5
83	285743	91	5
83	288909	92	5
83	292075	93	5
83	295241	94	5
83	298407	95	5
83	301573	96	5
83	304739	97	5
83	307905	98	5
83	311071	99	5
83	314237	100	5
84	2911	2	0.016545
84	6077	3	0.01873
84	9243	4	0.01873
84	12409	5	0.01873
84	15575	6	0.01873
84	18741	7	0.01873
84	21907	8	0.01873
84	25073	9	0.01873
84	28240	10	0.01873
84	32463	11	0.020275360254
84	35629	12	0.01873
84	38795	13	0.01873
84	41961	14	0.01873
84	45127	15	0.01873
84	48293	16	0.01873
84	51459	17	0.01873
84	54625	18	0.01873
84	57791	19	0.01873
84	60957	20	0.01873
84	64123	21	0.01873
84	67289	22	0.01873
84	70455	23	0.01873
84	73621	24	0.01873
84	76787	25	0.01873
84	79953	26	0.01873
84	83119	27	0.01873
84	86285	28	0.01873
84	89451	29	0.01873
84	92617	30	0.01873
84	95783	31	0.01873
84	98949	32	0.01873
84	102115	33	0.01873
84	105281	34	0.01873
84	108447	35	0.01873
84	111613	36	0.01873
84	114779	37	0.01873
84	117945	38	0.01873
84	121111	39	0.01873
84	124277	40	0.01873
84	127443	41	0.01873
84	130609	42	0.01873
84	133775	43	0.01873
84	136941	44	0.01873
84	140107	45	0.01873
84	143273	46	0.01873
84	146439	47	0.01873
84	149605	48	0.01873
84	152771	49	0.01873
84	155937	50	0.01873
84	159103	51	0.01873
84	162269	52	0.01873
84	165435	53	0.01873
84	168601	54	0.01873
84	171767	55	0.01873
84	174933	56	0.01873
84	178099	57	0.01873
84	181265	58	0.01873
84	184431	59	0.01873
84	187597	60	0.01873
84	190763	61	0.01873
84	193929	62	0.01873
84	197095	63	0.01873
84	200261	64	0.01873
84	203427	65	0.01873
84	206593	66	0.01873
84	209759	67	0.01873
84	212925	68	0.01873
84	216091	69	0.01873
84	219257	70	0.01873
84	222423	71	0.01873
84	225589	72	0.01873
84	228755	73	0.01873
84	231921	74	0.01873
84	235087	75	0.01873
84	238253	76	0.01873
84	241419	77	0.01873
84	244585	78	0.01873
84	247751	79	0.01873
84	250917	80	0.01873
84	254083	81	0.01873
84	257249	82	0.01873
84	260415	83	0.01873
84	263581	84	0.01873
84	266747	85	0.01873
84	269913	86	0.01873
84	273079	87	0.01873
84	276245	88	0.01873
84	279411	89	0.01873
84	282577	90	0.01873
84	285743	91	0.01873
84	288909	92	0.01873
84	292075	93	0.01873
84	295241	94	0.01873
84	298407	95	0.01873
84	301573	96	0.01873
84	304739	97	0.01873
84	307905	98	0.01873
84	311071	99	0.01873
84	314237	100	0.01873
85	2911	2	0
85	6077	3	0
85	9243	4	0
85	12409	5	0
85	15575	6	0
85	18741	7	0
85	21907	8	0
85	25073	9	0
85	28240	10	0
85	32463	11	0
85	35629	12	0
85	38795	13	0
85	41961	14	0
85	45127	15	0
85	48293	16	0
85	51459	17	0
85	54625	18	0
85	57791	19	0
85	60957	20	0
85	64123	21	0
85	67289	22	0
85	70455	23	0
85	73621	24	0
85	76787	25	0
85	79953	26	0
85	83119	27	0
85	86285	28	0
85	89451	29	0
85	92617	30	0
85	95783	31	0
85	98949	32	0
85	102115	33	0
85	105281	34	0
85	108447	35	0
85	111613	36	0
85	114779	37	0
85	117945	38	0
85	121111	39	0
85	124277	40	0
85	127443	41	0
85	130609	42	0
85	133775	43	0
85	136941	44	0
85	140107	45	0
85	143273	46	0
85	146439	47	0
85	149605	48	0
85	152771	49	0
85	155937	50	0
85	159103	51	0
85	162269	52	0
85	165435	53	0
85	168601	54	0
85	171767	55	0
85	174933	56	0
85	178099	57	0
85	181265	58	0
85	184431	59	0
85	187597	60	0
85	190763	61	0
85	193929	62	0
85	197095	63	0
85	200261	64	0
85	203427	65	0
85	206593	66	0
85	209759	67	0
85	212925	68	0
85	216091	69	0
85	219257	70	0
85	222423	71	0
85	225589	72	0
85	228755	73	0
85	231921	74	0
85	235087	75	0
85	238253	76	0
85	241419	77	0
85	244585	78	0
85	247751	79	0
85	250917	80	0
85	254083	81	0
85	257249	82	0
85	260415	83	0
85	263581	84	0
85	266747	85	0
85	269913	86	0
85	273079	87	0
85	276245	88	0
85	279411	89	0
85	282577	90	0
85	285743	91	0
85	288909	92	0
85	292075	93	0
85	295241	94	0
85	298407	95	0
85	301573	96	0
85	304739	97	0
85	307905	98	0
85	311071	99	0
85	314237	100	0

