version 3
run BreakRanksNoGui-2005-20240710-16:43:37-266329
attr configname BreakRanksNoGui
attr datetime 20240710-16:43:37
attr datetimef 20240710-164337
attr experiment BreakRanksNoGui
attr inifile omnetpp.ini
attr iterationvars "$nCars=12, $platoonSize=12, $nLanes=1, $ploegH=0.5, $controller=1, $headway=0.1, $leaderHeadway=1.2, $leaderSpeed=110, $breakRanksSafetyDistance=2, $minSpeed=100, $maxSpeed=120, $beaconInterval=0.1, $priority=4, $packetSize=200, $sController=\"CACC\", $0=2, $1=0"
attr iterationvarsd nCars=12/platoonSize=12/nLanes=1/ploegH=0.5/controller=1/headway=0.1/leaderHeadway=1.2/leaderSpeed=110/breakRanksSafetyDistance=2/minSpeed=100/maxSpeed=120/beaconInterval=0.1/priority=4/packetSize=200/sController=CACC/2/0
attr iterationvarsf nCars=12,platoonSize=12,nLanes=1,ploegH=0.5,controller=1,headway=0.1,leaderHeadway=1.2,leaderSpeed=110,breakRanksSafetyDistance=2,minSpeed=100,maxSpeed=120,beaconInterval=0.1,priority=4,packetSize=200,sController=CACC,2,0-
attr measurement "$nCars=12, $platoonSize=12, $nLanes=1, $ploegH=0.5, $controller=1, $headway=0.1, $leaderHeadway=1.2, $leaderSpeed=110, $breakRanksSafetyDistance=2, $minSpeed=100, $maxSpeed=120, $beaconInterval=0.1, $priority=4, $packetSize=200, $sController=\"CACC\", $0=2, $1=0"
attr network Highway
attr processid 266329
attr repetition 5
attr replication #5
attr resultdir results
attr runnumber 2005
attr seedset 5
itervar beaconInterval 0.1
itervar breakRanksSafetyDistance 2
itervar controller 1
itervar headway 0.1
itervar leaderHeadway 1.2
itervar leaderSpeed 110
itervar maxSpeed 120
itervar minSpeed 100
itervar nCars 12
itervar nLanes 1
itervar packetSize 200
itervar platoonSize 12
itervar ploegH 0.5
itervar priority 4
itervar sController "\"CACC\""
config image-path ../../../veins/images
config repeat 10
config extends BreakRanks
config *.manager.command "\"sumo\""
config *.manager.ignoreGuiCommands true
config output-vector-file "results/BreakRanks_1_0.1_110_2_12 /result_5.vec"
config output-scalar-file "results/BreakRanks_1_0.1_110_2_12 /result_5.sca"
config extends Platooning
config *.node[*].scenario_type "\"BreakRanksScenario\""
config *.manager.command "\"sumo-gui\""
config *.node[*].scenario_type "\"SimpleScenario\""
config cmdenv-express-mode true
config cmdenv-autoflush true
config cmdenv-status-frequency 15s
config num-rngs 6
config network Highway
config debug-on-errors true
config print-undisposed true
config *.playgroundSizeX 65000m
config *.playgroundSizeY 25000m
config *.playgroundSizeZ 50m
config sim-time-limit "100 s"
config *.annotations.draw false
config *.obstacles.debug false
config *.world.useTorus false
config *.world.use2D false
config *.manager.updateInterval 0.01s
config *.manager.host "\"localhost\""
config *.manager.moduleType "\"org.car2x.plexe.PlatoonCar\""
config *.manager.moduleName "\"node\""
config *.manager.moduleDisplayString "\"\""
config *.manager.autoShutdown true
config *.manager.margin 25
config *.connectionManager.sendDirect true
config *.connectionManager.maxInterfDist 2600m
config *.connectionManager.drawMaxIntfDist false
config *.**.nic.mac1609_4.useServiceChannel false
config *.**.nic.mac1609_4.txPower 100mW
config *.**.nic.mac1609_4.bitrate 6Mbps
config *.**.nic.mac1609_4.useAcks true
config *.**.nic.mac1609_4.ackErrorRate 0.0
config *.**.nic.mac1609_4.frameErrorRate 0.0
config *.**.nic.phy80211p.minPowerLevel -94dBm
config *.**.nic.phy80211p.maxTXPower 100mW
config *.**.nic.phy80211p.useNoiseFloor true
config *.**.nic.phy80211p.noiseFloor -95dBm
config *.**.nic.phy80211p.decider "xmldoc(\"config.xml\")"
config *.**.nic.phy80211p.analogueModels "xmldoc(\"config.xml\")"
config *.**.nic.phy80211p.usePropagationDelay true
config *.node[*].mobility.x 0
config *.node[*].mobility.y 0
config *.node[*].mobility.z 1.895
config seed-set 5
config **.seed 5
config *.node[*].prot.rng-0 2
config *.node[*].appl.rng-0 3
config *.node[*].scenario.rng-0 4
config **.traffic.rng-0 5
config *.manager.configFile "\"./sumocfg/freeway.sumo.cfg\""
config *.manager.launchConfig "xmldoc(\"./sumocfg/freeway.launchd.xml\")"
config **.numberOfCars 12
config **.numberOfCarsPerPlatoon 12
config **.numberOfLanes 1
config *.node[*].helper_type "\"PositionHelper\""
config *.node[*].scenario.caccC1 0.5
config *.node[*].scenario.caccXi 1
config *.node[*].scenario.caccOmegaN "0.2 Hz"
config *.node[*].scenario.caccSpacing "2 m"
config *.node[*].scenario.engineTau "0.5 s"
config *.node[*].scenario.ploegH 0.5s
config *.node[*].scenario.ploegKp 0.2
config *.node[*].scenario.ploegKd 0.7
config *.node[*].scenario.useRealisticEngine false
config *.node[*].scenario.useControllerAcceleration true
config *.node[*].scenario.nLanes 1
config **.numericController 1
config **.headway 0.1s
config *.node[*].scenario.accHeadway 0.1s
config *.node[*].scenario.leaderHeadway 1.2s
config *.node[*].scenario.leaderSpeed 110kmph
config *.node[*].appl_type "\"SimplePlatooningApp\""
config *.node[*].appl.*.scalar-recording true
config *.node[*].appl.*.vector-recording true
config *.node[0].appl.breakRanksSafetyDistance 2m
config *.node[*].appl.minSpeed 100kmph
config *.node[*].appl.maxSpeed 120kmph
config *.node[*].protocol_type "\"SimplePlatooningBeaconing\""
config *.node[*].prot.*.scalar-recording true
config *.node[*].prot.*.vector-recording true
config *.node[*].prot.beaconingInterval 0.1s
config *.node[*].prot.priority 4
config *.node[*].prot.packetSize 200
config **.traffic_type "\"PlatoonsTrafficManager\""
config **.traffic.platoonInsertTime "1 s"
config **.traffic.platoonInsertSpeed 110kmph
config **.traffic.nCars 12
config **.traffic.platoonSize 12
config **.traffic.nLanes 1
config **.traffic.platooningVType "\"vtypeauto\""
config **.traffic.controller "\"CACC\""
config **.traffic.platoonInsertDistance 2m
config **.traffic.platoonInsertHeadway 0s
config **.traffic.platoonLeaderHeadway 1.2s
config **.scalar-recording false
config **.vector-recording false

vector 0 Highway.node[0].appl distance ETV
vector 1 Highway.node[0].appl relativeSpeed ETV
vector 2 Highway.node[0].appl nodeId ETV
vector 3 Highway.node[0].appl acceleration ETV
vector 4 Highway.node[0].appl controllerAcceleration ETV
vector 5 Highway.node[0].appl speed ETV
vector 6 Highway.node[0].appl posx ETV
vector 7 Highway.node[0].appl posy ETV
vector 8 Highway.node[1].appl distance ETV
vector 9 Highway.node[1].appl relativeSpeed ETV
vector 10 Highway.node[1].appl nodeId ETV
vector 11 Highway.node[1].appl acceleration ETV
vector 12 Highway.node[1].appl controllerAcceleration ETV
vector 13 Highway.node[1].appl speed ETV
vector 14 Highway.node[1].appl posx ETV
vector 15 Highway.node[1].appl posy ETV
vector 16 Highway.node[2].appl distance ETV
vector 17 Highway.node[2].appl relativeSpeed ETV
vector 18 Highway.node[2].appl nodeId ETV
vector 19 Highway.node[2].appl acceleration ETV
vector 20 Highway.node[2].appl controllerAcceleration ETV
vector 21 Highway.node[2].appl speed ETV
vector 22 Highway.node[2].appl posx ETV
vector 23 Highway.node[2].appl posy ETV
vector 24 Highway.node[3].appl distance ETV
vector 25 Highway.node[3].appl relativeSpeed ETV
vector 26 Highway.node[3].appl nodeId ETV
vector 27 Highway.node[3].appl acceleration ETV
vector 28 Highway.node[3].appl controllerAcceleration ETV
vector 29 Highway.node[3].appl speed ETV
vector 30 Highway.node[3].appl posx ETV
vector 31 Highway.node[3].appl posy ETV
vector 32 Highway.node[4].appl distance ETV
vector 33 Highway.node[4].appl relativeSpeed ETV
vector 34 Highway.node[4].appl nodeId ETV
vector 35 Highway.node[4].appl acceleration ETV
vector 36 Highway.node[4].appl controllerAcceleration ETV
vector 37 Highway.node[4].appl speed ETV
vector 38 Highway.node[4].appl posx ETV
vector 39 Highway.node[4].appl posy ETV
vector 40 Highway.node[5].appl distance ETV
vector 41 Highway.node[5].appl relativeSpeed ETV
vector 42 Highway.node[5].appl nodeId ETV
vector 43 Highway.node[5].appl acceleration ETV
vector 44 Highway.node[5].appl controllerAcceleration ETV
vector 45 Highway.node[5].appl speed ETV
vector 46 Highway.node[5].appl posx ETV
vector 47 Highway.node[5].appl posy ETV
vector 48 Highway.node[6].appl distance ETV
vector 49 Highway.node[6].appl relativeSpeed ETV
vector 50 Highway.node[6].appl nodeId ETV
vector 51 Highway.node[6].appl acceleration ETV
vector 52 Highway.node[6].appl controllerAcceleration ETV
vector 53 Highway.node[6].appl speed ETV
vector 54 Highway.node[6].appl posx ETV
vector 55 Highway.node[6].appl posy ETV
vector 56 Highway.node[7].appl distance ETV
vector 57 Highway.node[7].appl relativeSpeed ETV
vector 58 Highway.node[7].appl nodeId ETV
vector 59 Highway.node[7].appl acceleration ETV
vector 60 Highway.node[7].appl controllerAcceleration ETV
vector 61 Highway.node[7].appl speed ETV
vector 62 Highway.node[7].appl posx ETV
vector 63 Highway.node[7].appl posy ETV
vector 64 Highway.node[8].appl distance ETV
vector 65 Highway.node[8].appl relativeSpeed ETV
vector 66 Highway.node[8].appl nodeId ETV
vector 67 Highway.node[8].appl acceleration ETV
vector 68 Highway.node[8].appl controllerAcceleration ETV
vector 69 Highway.node[8].appl speed ETV
vector 70 Highway.node[8].appl posx ETV
vector 71 Highway.node[8].appl posy ETV
vector 72 Highway.node[9].appl distance ETV
vector 73 Highway.node[9].appl relativeSpeed ETV
vector 74 Highway.node[9].appl nodeId ETV
vector 75 Highway.node[9].appl acceleration ETV
vector 76 Highway.node[9].appl controllerAcceleration ETV
vector 77 Highway.node[9].appl speed ETV
vector 78 Highway.node[9].appl posx ETV
vector 79 Highway.node[9].appl posy ETV
vector 80 Highway.node[10].appl distance ETV
vector 81 Highway.node[10].appl relativeSpeed ETV
vector 82 Highway.node[10].appl nodeId ETV
vector 83 Highway.node[10].appl acceleration ETV
vector 84 Highway.node[10].appl controllerAcceleration ETV
vector 85 Highway.node[10].appl speed ETV
vector 86 Highway.node[10].appl posx ETV
vector 87 Highway.node[10].appl posy ETV
vector 88 Highway.node[11].appl distance ETV
vector 89 Highway.node[11].appl relativeSpeed ETV
vector 90 Highway.node[11].appl nodeId ETV
vector 91 Highway.node[11].appl acceleration ETV
vector 92 Highway.node[11].appl controllerAcceleration ETV
vector 93 Highway.node[11].appl speed ETV
vector 94 Highway.node[11].appl posx ETV
vector 95 Highway.node[11].appl posy ETV
vector 96 Highway.node[4].prot frontDelay ETV
vector 97 Highway.node[4].prot frontDelayId ETV
vector 98 Highway.node[6].prot frontDelay ETV
vector 99 Highway.node[6].prot frontDelayId ETV
vector 100 Highway.node[2].prot frontDelay ETV
vector 101 Highway.node[2].prot frontDelayId ETV
vector 102 Highway.node[3].prot frontDelay ETV
vector 103 Highway.node[3].prot frontDelayId ETV
vector 104 Highway.node[5].prot frontDelay ETV
vector 105 Highway.node[5].prot frontDelayId ETV
vector 106 Highway.node[10].prot frontDelay ETV
vector 107 Highway.node[10].prot frontDelayId ETV
vector 108 Highway.node[9].prot frontDelay ETV
vector 109 Highway.node[9].prot frontDelayId ETV
vector 110 Highway.node[8].prot frontDelay ETV
vector 111 Highway.node[8].prot frontDelayId ETV
vector 112 Highway.node[11].prot frontDelay ETV
vector 113 Highway.node[11].prot frontDelayId ETV
vector 114 Highway.node[1].prot leaderDelay ETV
vector 115 Highway.node[1].prot leaderDelayId ETV
vector 116 Highway.node[1].prot frontDelay ETV
vector 117 Highway.node[1].prot frontDelayId ETV
vector 118 Highway.node[4].prot leaderDelay ETV
vector 119 Highway.node[4].prot leaderDelayId ETV
vector 120 Highway.node[5].prot leaderDelay ETV
vector 121 Highway.node[5].prot leaderDelayId ETV
vector 122 Highway.node[6].prot leaderDelay ETV
vector 123 Highway.node[6].prot leaderDelayId ETV
vector 124 Highway.node[7].prot leaderDelay ETV
vector 125 Highway.node[7].prot leaderDelayId ETV
vector 126 Highway.node[8].prot leaderDelay ETV
vector 127 Highway.node[8].prot leaderDelayId ETV
vector 128 Highway.node[9].prot leaderDelay ETV
vector 129 Highway.node[9].prot leaderDelayId ETV
vector 130 Highway.node[10].prot leaderDelay ETV
vector 131 Highway.node[10].prot leaderDelayId ETV
vector 132 Highway.node[11].prot leaderDelay ETV
vector 133 Highway.node[11].prot leaderDelayId ETV
vector 134 Highway.node[2].prot leaderDelay ETV
vector 135 Highway.node[2].prot leaderDelayId ETV
vector 136 Highway.node[3].prot leaderDelay ETV
vector 137 Highway.node[3].prot leaderDelayId ETV
vector 138 Highway.node[7].prot frontDelay ETV
vector 139 Highway.node[7].prot frontDelayId ETV
vector 140 Highway.node[0].prot nodeId ETV
vector 141 Highway.node[0].prot busyTime ETV
vector 142 Highway.node[0].prot collisions ETV
vector 143 Highway.node[1].prot nodeId ETV
vector 144 Highway.node[1].prot busyTime ETV
vector 145 Highway.node[1].prot collisions ETV
vector 146 Highway.node[2].prot nodeId ETV
vector 147 Highway.node[2].prot busyTime ETV
vector 148 Highway.node[2].prot collisions ETV
vector 149 Highway.node[3].prot nodeId ETV
vector 150 Highway.node[3].prot busyTime ETV
vector 151 Highway.node[3].prot collisions ETV
vector 152 Highway.node[4].prot nodeId ETV
vector 153 Highway.node[4].prot busyTime ETV
vector 154 Highway.node[4].prot collisions ETV
vector 155 Highway.node[5].prot nodeId ETV
vector 156 Highway.node[5].prot busyTime ETV
vector 157 Highway.node[5].prot collisions ETV
vector 158 Highway.node[6].prot nodeId ETV
vector 159 Highway.node[6].prot busyTime ETV
vector 160 Highway.node[6].prot collisions ETV
vector 161 Highway.node[7].prot nodeId ETV
vector 162 Highway.node[7].prot busyTime ETV
vector 163 Highway.node[7].prot collisions ETV
vector 164 Highway.node[8].prot nodeId ETV
vector 165 Highway.node[8].prot busyTime ETV
vector 166 Highway.node[8].prot collisions ETV
vector 167 Highway.node[9].prot nodeId ETV
vector 168 Highway.node[9].prot busyTime ETV
vector 169 Highway.node[9].prot collisions ETV
vector 170 Highway.node[10].prot nodeId ETV
vector 171 Highway.node[10].prot busyTime ETV
vector 172 Highway.node[10].prot collisions ETV
vector 173 Highway.node[11].prot nodeId ETV
vector 174 Highway.node[11].prot busyTime ETV
vector 175 Highway.node[11].prot collisions ETV
0	113	1.11	-1
0	1311	1.21	-1
0	2509	1.31	-1
0	3707	1.41	-1
0	4905	1.51	-1
0	6103	1.61	-1
0	7301	1.71	-1
0	8499	1.81	-1
0	9697	1.91	-1
0	10907	2.01	-1
0	12105	2.11	-1
0	13303	2.21	-1
0	14501	2.31	-1
0	15699	2.41	-1
0	16897	2.51	-1
0	18095	2.61	-1
0	19293	2.71	-1
0	20491	2.81	-1
0	21689	2.91	-1
0	22899	3.01	-1
0	24097	3.11	-1
0	25295	3.21	-1
0	26493	3.31	-1
0	27691	3.41	-1
0	28889	3.51	-1
0	30087	3.61	-1
0	31285	3.71	-1
0	32483	3.81	-1
0	33681	3.91	-1
0	34891	4.01	-1
0	36089	4.11	-1
0	37287	4.21	-1
0	38485	4.31	-1
0	39683	4.41	-1
0	40881	4.51	-1
0	42079	4.61	-1
0	43277	4.71	-1
0	44475	4.81	-1
0	45673	4.91	-1
0	46883	5.01	-1
0	48081	5.11	-1
0	49279	5.21	-1
0	50477	5.31	-1
0	51675	5.41	-1
0	52873	5.51	-1
0	54071	5.61	-1
0	55269	5.71	-1
0	56467	5.81	-1
0	57665	5.91	-1
0	58875	6.01	-1
0	60073	6.11	-1
0	61271	6.21	-1
0	62469	6.31	-1
0	63667	6.41	-1
0	64865	6.51	-1
0	66063	6.61	-1
0	67261	6.71	-1
0	68459	6.81	-1
0	69657	6.91	-1
0	70867	7.01	-1
0	72065	7.11	-1
0	73263	7.21	-1
0	74461	7.31	-1
0	75659	7.41	-1
0	76857	7.51	-1
0	78055	7.61	-1
0	79253	7.71	-1
0	80451	7.81	-1
0	81649	7.91	-1
0	82859	8.01	-1
0	84057	8.11	-1
0	85255	8.21	-1
0	86453	8.31	-1
0	87651	8.41	-1
0	88849	8.51	-1
0	90047	8.61	-1
0	91245	8.71	-1
0	92443	8.81	-1
0	93641	8.91	-1
0	94851	9.01	-1
0	96049	9.11	-1
0	97247	9.21	-1
0	98445	9.31	-1
0	99643	9.41	-1
0	100841	9.51	-1
0	102039	9.61	-1
0	103237	9.71	-1
0	104435	9.81	-1
0	105633	9.91	-1
0	111499	10.01	-1
0	112697	10.11	-1
0	113895	10.21	-1
0	115093	10.31	-1
0	116291	10.41	-1
0	117489	10.51	-1
0	118687	10.61	-1
0	119885	10.71	-1
0	121083	10.81	-1
0	122281	10.91	-1
0	123491	11.01	-1
0	124689	11.11	-1
0	125887	11.21	-1
0	127085	11.31	-1
0	128283	11.41	-1
0	129481	11.51	-1
0	130679	11.61	-1
0	131877	11.71	-1
0	133075	11.81	-1
0	134273	11.91	-1
0	135483	12.01	-1
0	136681	12.11	-1
0	137879	12.21	-1
0	139077	12.31	-1
0	140275	12.41	-1
0	141473	12.51	-1
0	142671	12.61	-1
0	143869	12.71	-1
0	145067	12.81	-1
0	146265	12.91	-1
0	147475	13.01	-1
0	148673	13.11	-1
0	149871	13.21	-1
0	151069	13.31	-1
0	152267	13.41	-1
0	153465	13.51	-1
0	154663	13.61	-1
0	155861	13.71	-1
0	157059	13.81	-1
0	158257	13.91	-1
0	159467	14.01	-1
0	160665	14.11	-1
0	161863	14.21	-1
0	163061	14.31	-1
0	164259	14.41	-1
0	165457	14.51	-1
0	166655	14.61	-1
0	167853	14.71	-1
0	169051	14.81	-1
0	170249	14.91	-1
0	171459	15.01	-1
0	172657	15.11	-1
0	173855	15.21	-1
0	175053	15.31	-1
0	176251	15.41	-1
0	177449	15.51	-1
0	178647	15.61	-1
0	179845	15.71	-1
0	181043	15.81	-1
0	182241	15.91	-1
0	183451	16.01	-1
0	184649	16.11	-1
0	185847	16.21	-1
0	187045	16.31	-1
0	188243	16.41	-1
0	189441	16.51	-1
0	190639	16.61	-1
0	191837	16.71	-1
0	193035	16.81	-1
0	194233	16.91	-1
0	195443	17.01	-1
0	196641	17.11	-1
0	197839	17.21	-1
0	199037	17.31	-1
0	200235	17.41	-1
0	201433	17.51	-1
0	202631	17.61	-1
0	203829	17.71	-1
0	205027	17.81	-1
0	206225	17.91	-1
0	207435	18.01	-1
0	208633	18.11	-1
0	209831	18.21	-1
0	211029	18.31	-1
0	212227	18.41	-1
0	213425	18.51	-1
0	214623	18.61	-1
0	215821	18.71	-1
0	217019	18.81	-1
0	218217	18.91	-1
0	219427	19.01	-1
0	220625	19.11	-1
0	221823	19.21	-1
0	223021	19.31	-1
0	224219	19.41	-1
0	225417	19.51	-1
0	226615	19.61	-1
0	227813	19.71	-1
0	229011	19.81	-1
0	230209	19.91	-1
0	231419	20.01	-1
0	232617	20.11	-1
0	233815	20.21	-1
0	235013	20.31	-1
0	236211	20.41	-1
0	237409	20.51	-1
0	238607	20.61	-1
0	239805	20.71	-1
0	241003	20.81	-1
0	242201	20.91	-1
0	243411	21.01	-1
0	244609	21.11	-1
0	245807	21.21	-1
0	247005	21.31	-1
0	248203	21.41	-1
0	249401	21.51	-1
0	250599	21.61	-1
0	251797	21.71	-1
0	252995	21.81	-1
0	254193	21.91	-1
0	255403	22.01	-1
0	256601	22.11	-1
0	257799	22.21	-1
0	258997	22.31	-1
0	260195	22.41	-1
0	261393	22.51	-1
0	262591	22.61	-1
0	263789	22.71	-1
0	264987	22.81	-1
0	266185	22.91	-1
0	267395	23.01	-1
0	268593	23.11	-1
0	269791	23.21	-1
0	270989	23.31	-1
0	272187	23.41	-1
0	273385	23.51	-1
0	274583	23.61	-1
0	275781	23.71	-1
0	276979	23.81	-1
0	278177	23.91	-1
0	279387	24.01	-1
0	280585	24.11	-1
0	281783	24.21	-1
0	282981	24.31	-1
0	284179	24.41	-1
0	285377	24.51	-1
0	286575	24.61	-1
0	287773	24.71	-1
0	288971	24.81	-1
0	290169	24.91	-1
0	291379	25.01	-1
0	292577	25.11	-1
0	293775	25.21	-1
0	294973	25.31	-1
0	296171	25.41	-1
0	297369	25.51	-1
0	298567	25.61	-1
0	299765	25.71	-1
0	300963	25.81	-1
0	302161	25.91	-1
0	303371	26.01	-1
0	304569	26.11	-1
0	305767	26.21	-1
0	306965	26.31	-1
0	308163	26.41	-1
0	309361	26.51	-1
0	310559	26.61	-1
0	311757	26.71	-1
0	312955	26.81	-1
0	314153	26.91	-1
0	315363	27.01	-1
0	316561	27.11	-1
0	317759	27.21	-1
0	318957	27.31	-1
0	320155	27.41	-1
0	321353	27.51	-1
0	322551	27.61	-1
0	323749	27.71	-1
0	324947	27.81	-1
0	326145	27.91	-1
0	327355	28.01	-1
0	328553	28.11	-1
0	329751	28.21	-1
0	330949	28.31	-1
0	332147	28.41	-1
0	333345	28.51	-1
0	334543	28.61	-1
0	335741	28.71	-1
0	336939	28.81	-1
0	338137	28.91	-1
0	339347	29.01	-1
0	340545	29.11	-1
0	341743	29.21	-1
0	342941	29.31	-1
0	344139	29.41	-1
0	345337	29.51	-1
0	346535	29.61	-1
0	347733	29.71	-1
0	348931	29.81	-1
0	350129	29.91	-1
0	351339	30.01	-1
0	352537	30.11	-1
0	353735	30.21	-1
0	354933	30.31	-1
0	356131	30.41	-1
0	357329	30.51	-1
0	358527	30.61	-1
0	359725	30.71	-1
0	360923	30.81	-1
0	362121	30.91	-1
0	363331	31.01	-1
0	364529	31.11	-1
0	365727	31.21	-1
0	366925	31.31	-1
0	368123	31.41	-1
0	369321	31.51	-1
0	370519	31.61	-1
0	371717	31.71	-1
0	372915	31.81	-1
0	374113	31.91	-1
0	375323	32.01	-1
0	376521	32.11	-1
0	377719	32.21	-1
0	378917	32.31	-1
0	380115	32.41	-1
0	381313	32.51	-1
0	382511	32.61	-1
0	383709	32.71	-1
0	384907	32.81	-1
0	386105	32.91	-1
0	387315	33.01	-1
0	388513	33.11	-1
0	389711	33.21	-1
0	390909	33.31	-1
0	392107	33.41	-1
0	393305	33.51	-1
0	394503	33.61	-1
0	395701	33.71	-1
0	396899	33.81	-1
0	398097	33.91	-1
0	399307	34.01	-1
0	400505	34.11	-1
0	401703	34.21	-1
0	402901	34.31	-1
0	404099	34.41	-1
0	405297	34.51	-1
0	406495	34.61	-1
0	407693	34.71	-1
0	408891	34.81	-1
0	410089	34.91	-1
0	411299	35.01	-1
0	412497	35.11	-1
0	413695	35.21	-1
0	414893	35.31	-1
0	416091	35.41	-1
0	417289	35.51	-1
0	418487	35.61	-1
0	419685	35.71	-1
0	420883	35.81	-1
0	422081	35.91	-1
0	423291	36.01	-1
0	424489	36.11	-1
0	425687	36.21	-1
0	426885	36.31	-1
0	428083	36.41	-1
0	429281	36.51	-1
0	430479	36.61	-1
0	431677	36.71	-1
0	432875	36.81	-1
0	434073	36.91	-1
0	435283	37.01	-1
0	436481	37.11	-1
0	437679	37.21	-1
0	438877	37.31	-1
0	440075	37.41	-1
0	441273	37.51	-1
0	442471	37.61	-1
0	443669	37.71	-1
0	444867	37.81	-1
0	446065	37.91	-1
0	447275	38.01	-1
0	448473	38.11	-1
0	449671	38.21	-1
0	450869	38.31	-1
0	452067	38.41	-1
0	453265	38.51	-1
0	454463	38.61	-1
0	455661	38.71	-1
0	456859	38.81	-1
0	458057	38.91	-1
0	459267	39.01	-1
0	460465	39.11	-1
0	461663	39.21	-1
0	462861	39.31	-1
0	464059	39.41	-1
0	465257	39.51	-1
0	466455	39.61	-1
0	467653	39.71	-1
0	468851	39.81	-1
0	470049	39.91	-1
0	471259	40.01	-1
0	472457	40.11	-1
0	473655	40.21	-1
0	474853	40.31	-1
0	476051	40.41	-1
0	477249	40.51	-1
0	478447	40.61	-1
0	479645	40.71	-1
0	480843	40.81	-1
0	482041	40.91	-1
0	483251	41.01	-1
0	484449	41.11	-1
0	485647	41.21	-1
0	486845	41.31	-1
0	488043	41.41	-1
0	489241	41.51	-1
0	490439	41.61	-1
0	491637	41.71	-1
0	492835	41.81	-1
0	494033	41.91	-1
0	495243	42.01	-1
0	496441	42.11	-1
0	497639	42.21	-1
0	498837	42.31	-1
0	500035	42.41	-1
0	501233	42.51	-1
0	502431	42.61	-1
0	503629	42.71	-1
0	504827	42.81	-1
0	506025	42.91	-1
0	507235	43.01	-1
0	508433	43.11	-1
0	509631	43.21	-1
0	510829	43.31	-1
0	512027	43.41	-1
0	513225	43.51	-1
0	514423	43.61	-1
0	515621	43.71	-1
0	516819	43.81	-1
0	518017	43.91	-1
0	519227	44.01	-1
0	520425	44.11	-1
0	521623	44.21	-1
0	522821	44.31	-1
0	524019	44.41	-1
0	525217	44.51	-1
0	526415	44.61	-1
0	527613	44.71	-1
0	528811	44.81	-1
0	530009	44.91	-1
0	531219	45.01	-1
0	532417	45.11	-1
0	533615	45.21	-1
0	534813	45.31	-1
0	536011	45.41	-1
0	537209	45.51	-1
0	538407	45.61	-1
0	539605	45.71	-1
0	540803	45.81	-1
0	542001	45.91	-1
0	543211	46.01	-1
0	544409	46.11	-1
0	545607	46.21	-1
0	546805	46.31	-1
0	548003	46.41	-1
0	549201	46.51	-1
0	550399	46.61	-1
0	551597	46.71	-1
0	552795	46.81	-1
0	553993	46.91	-1
0	555203	47.01	-1
0	556401	47.11	-1
0	557599	47.21	-1
0	558797	47.31	-1
0	559995	47.41	-1
0	561193	47.51	-1
0	562391	47.61	-1
0	563589	47.71	-1
0	564787	47.81	-1
0	565985	47.91	-1
0	567195	48.01	-1
0	568393	48.11	-1
0	569591	48.21	-1
0	570789	48.31	-1
0	571987	48.41	-1
0	573185	48.51	-1
0	574383	48.61	-1
0	575581	48.71	-1
0	576779	48.81	-1
0	577977	48.91	-1
0	579187	49.01	-1
0	580385	49.11	-1
0	581583	49.21	-1
0	582781	49.31	-1
0	583979	49.41	-1
0	585177	49.51	-1
0	586375	49.61	-1
0	587573	49.71	-1
0	588771	49.81	-1
0	589969	49.91	-1
0	591179	50.01	-1
0	592377	50.11	-1
0	593575	50.21	-1
0	594773	50.31	-1
0	595971	50.41	-1
0	597169	50.51	-1
0	598367	50.61	-1
0	599565	50.71	-1
0	600763	50.81	-1
0	601961	50.91	-1
0	603171	51.01	-1
0	604369	51.11	-1
0	605567	51.21	-1
0	606765	51.31	-1
0	607963	51.41	-1
0	609161	51.51	-1
0	610359	51.61	-1
0	611557	51.71	-1
0	612755	51.81	-1
0	613953	51.91	-1
0	615163	52.01	-1
0	616361	52.11	-1
0	617559	52.21	-1
0	618757	52.31	-1
0	619955	52.41	-1
0	621153	52.51	-1
0	622351	52.61	-1
0	623549	52.71	-1
0	624747	52.81	-1
0	625945	52.91	-1
0	627155	53.01	-1
0	628353	53.11	-1
0	629551	53.21	-1
0	630749	53.31	-1
0	631947	53.41	-1
0	633145	53.51	-1
0	634343	53.61	-1
0	635541	53.71	-1
0	636739	53.81	-1
0	637937	53.91	-1
0	639147	54.01	-1
0	640345	54.11	-1
0	641543	54.21	-1
0	642741	54.31	-1
0	643939	54.41	-1
0	645137	54.51	-1
0	646335	54.61	-1
0	647533	54.71	-1
0	648731	54.81	-1
0	649929	54.91	-1
0	651139	55.01	-1
0	652337	55.11	-1
0	653535	55.21	-1
0	654733	55.31	-1
0	655931	55.41	-1
0	657129	55.51	-1
0	658327	55.61	-1
0	659525	55.71	-1
0	660723	55.81	-1
0	661921	55.91	-1
0	663131	56.01	-1
0	664329	56.11	-1
0	665527	56.21	-1
0	666725	56.31	-1
0	667923	56.41	-1
0	669121	56.51	-1
0	670319	56.61	-1
0	671517	56.71	-1
0	672715	56.81	-1
0	673913	56.91	-1
0	675123	57.01	-1
0	676321	57.11	-1
0	677519	57.21	-1
0	678717	57.31	-1
0	679915	57.41	-1
0	681113	57.51	-1
0	682311	57.61	-1
0	683509	57.71	-1
0	684707	57.81	-1
0	685905	57.91	-1
0	687115	58.01	-1
0	688313	58.11	-1
0	689511	58.21	-1
0	690709	58.31	-1
0	691907	58.41	-1
0	693105	58.51	-1
0	694303	58.61	-1
0	695501	58.71	-1
0	696699	58.81	-1
0	697897	58.91	-1
0	699107	59.01	-1
0	700305	59.11	-1
0	701503	59.21	-1
0	702701	59.31	-1
0	703899	59.41	-1
0	705097	59.51	-1
0	706295	59.61	-1
0	707493	59.71	-1
0	708691	59.81	-1
0	709889	59.91	-1
0	711099	60.01	-1
0	712297	60.11	-1
0	713495	60.21	-1
0	714693	60.31	-1
0	715891	60.41	-1
0	717089	60.51	-1
0	718287	60.61	-1
0	719485	60.71	-1
0	720683	60.81	-1
0	721881	60.91	-1
0	723091	61.01	-1
0	724289	61.11	-1
0	725487	61.21	-1
0	726685	61.31	-1
0	727883	61.41	-1
0	729081	61.51	-1
0	730279	61.61	-1
0	731477	61.71	-1
0	732675	61.81	-1
0	733873	61.91	-1
0	735083	62.01	-1
0	736281	62.11	-1
0	737479	62.21	-1
0	738677	62.31	-1
0	739875	62.41	-1
0	741073	62.51	-1
0	742271	62.61	-1
0	743469	62.71	-1
0	744667	62.81	-1
0	745865	62.91	-1
0	747075	63.01	-1
0	748273	63.11	-1
0	749471	63.21	-1
0	750669	63.31	-1
0	751867	63.41	-1
0	753065	63.51	-1
0	754263	63.61	-1
0	755461	63.71	-1
0	756659	63.81	-1
0	757857	63.91	-1
0	759067	64.01	-1
0	760265	64.11	-1
0	761463	64.21	-1
0	762661	64.31	-1
0	763859	64.41	-1
0	765057	64.51	-1
0	766255	64.61	-1
0	767453	64.71	-1
0	768651	64.81	-1
0	769849	64.91	-1
0	771059	65.01	-1
0	772257	65.11	-1
0	773455	65.21	-1
0	774653	65.31	-1
0	775851	65.41	-1
0	777049	65.51	-1
0	778247	65.61	-1
0	779445	65.71	-1
0	780643	65.81	-1
0	781841	65.91	-1
0	783051	66.01	-1
0	784249	66.11	-1
0	785447	66.21	-1
0	786645	66.31	-1
0	787843	66.41	-1
0	789041	66.51	-1
0	790239	66.61	-1
0	791437	66.71	-1
0	792635	66.81	-1
0	793833	66.91	-1
0	795043	67.01	-1
0	796241	67.11	-1
0	797439	67.21	-1
0	798637	67.31	-1
0	799835	67.41	-1
0	801033	67.51	-1
0	802231	67.61	-1
0	803429	67.71	-1
0	804627	67.81	-1
0	805825	67.91	-1
0	807035	68.01	-1
0	808233	68.11	-1
0	809431	68.21	-1
0	810629	68.31	-1
0	811827	68.41	-1
0	813025	68.51	-1
0	814223	68.61	-1
0	815421	68.71	-1
0	816619	68.81	-1
0	817817	68.91	-1
0	819027	69.01	-1
0	820225	69.11	-1
0	821423	69.21	-1
0	822621	69.31	-1
0	823819	69.41	-1
0	825017	69.51	-1
0	826215	69.61	-1
0	827413	69.71	-1
0	828611	69.81	-1
0	829809	69.91	-1
0	831019	70.01	-1
0	832217	70.11	-1
0	833415	70.21	-1
0	834613	70.31	-1
0	835811	70.41	-1
0	837009	70.51	-1
0	838207	70.61	-1
0	839405	70.71	-1
0	840603	70.81	-1
0	841801	70.91	-1
0	843011	71.01	-1
0	844209	71.11	-1
0	845407	71.21	-1
0	846605	71.31	-1
0	847803	71.41	-1
0	849001	71.51	-1
0	850199	71.61	-1
0	851397	71.71	-1
0	852595	71.81	-1
0	853793	71.91	-1
0	855003	72.01	-1
0	856201	72.11	-1
0	857399	72.21	-1
0	858597	72.31	-1
0	859795	72.41	-1
0	860993	72.51	-1
0	862191	72.61	-1
0	863389	72.71	-1
0	864587	72.81	-1
0	865785	72.91	-1
0	866995	73.01	-1
0	868193	73.11	-1
0	869391	73.21	-1
0	870589	73.31	-1
0	871787	73.41	-1
0	872985	73.51	-1
0	874183	73.61	-1
0	875381	73.71	-1
0	876579	73.81	-1
0	877777	73.91	-1
0	878987	74.01	-1
0	880185	74.11	-1
0	881383	74.21	-1
0	882581	74.31	-1
0	883779	74.41	-1
0	884977	74.51	-1
0	886175	74.61	-1
0	887373	74.71	-1
0	888571	74.81	-1
0	889769	74.91	-1
0	890979	75.01	-1
0	892177	75.11	-1
0	893375	75.21	-1
0	894573	75.31	-1
0	895771	75.41	-1
0	896969	75.51	-1
0	898167	75.61	-1
0	899365	75.71	-1
0	900563	75.81	-1
0	901761	75.91	-1
0	902971	76.01	-1
0	904169	76.11	-1
0	905367	76.21	-1
0	906565	76.31	-1
0	907763	76.41	-1
0	908961	76.51	-1
0	910159	76.61	-1
0	911357	76.71	-1
0	912555	76.81	-1
0	913753	76.91	-1
0	914963	77.01	-1
0	916161	77.11	-1
0	917359	77.21	-1
0	918557	77.31	-1
0	919755	77.41	-1
0	920953	77.51	-1
0	922151	77.61	-1
0	923349	77.71	-1
0	924547	77.81	-1
0	925745	77.91	-1
0	926955	78.01	-1
0	928153	78.11	-1
0	929351	78.21	-1
0	930549	78.31	-1
0	931747	78.41	-1
0	932945	78.51	-1
0	934143	78.61	-1
0	935341	78.71	-1
0	936539	78.81	-1
0	937737	78.91	-1
0	938947	79.01	-1
0	940145	79.11	-1
0	941343	79.21	-1
0	942541	79.31	-1
0	943739	79.41	-1
0	944937	79.51	-1
0	946135	79.61	-1
0	947333	79.71	-1
0	948531	79.81	-1
0	949729	79.91	-1
0	950939	80.01	-1
0	952137	80.11	-1
0	953335	80.21	-1
0	954533	80.31	-1
0	955731	80.41	-1
0	956929	80.51	-1
0	958127	80.61	-1
0	959325	80.71	-1
0	960523	80.81	-1
0	961721	80.91	-1
0	962931	81.01	-1
0	964129	81.11	-1
0	965327	81.21	-1
0	966525	81.31	-1
0	967723	81.41	-1
0	968921	81.51	-1
0	970119	81.61	-1
0	971317	81.71	-1
0	972515	81.81	-1
0	973713	81.91	-1
0	974923	82.01	-1
0	976121	82.11	-1
0	977319	82.21	-1
0	978517	82.31	-1
0	979715	82.41	-1
0	980913	82.51	-1
0	982111	82.61	-1
0	983309	82.71	-1
0	984507	82.81	-1
0	985705	82.91	-1
0	986915	83.01	-1
0	988113	83.11	-1
0	989311	83.21	-1
0	990509	83.31	-1
0	991707	83.41	-1
0	992905	83.51	-1
0	994103	83.61	-1
0	995301	83.71	-1
0	996499	83.81	-1
0	997697	83.91	-1
0	998907	84.01	-1
0	1000105	84.11	-1
0	1001303	84.21	-1
0	1002501	84.31	-1
0	1003699	84.41	-1
0	1004897	84.51	-1
0	1006095	84.61	-1
0	1007293	84.71	-1
0	1008491	84.81	-1
0	1009689	84.91	-1
0	1010899	85.01	-1
0	1012097	85.11	-1
0	1013295	85.21	-1
0	1014493	85.31	-1
0	1015691	85.41	-1
0	1016889	85.51	-1
0	1018087	85.61	-1
0	1019285	85.71	-1
0	1020483	85.81	-1
0	1021681	85.91	-1
0	1022891	86.01	-1
0	1024089	86.11	-1
0	1025287	86.21	-1
0	1026485	86.31	-1
0	1027683	86.41	-1
0	1028881	86.51	-1
0	1030079	86.61	-1
0	1031277	86.71	-1
0	1032475	86.81	-1
0	1033673	86.91	-1
0	1034883	87.01	-1
0	1036081	87.11	-1
0	1037279	87.21	-1
0	1038477	87.31	-1
0	1039675	87.41	-1
0	1040873	87.51	-1
0	1042071	87.61	-1
0	1043269	87.71	-1
0	1044467	87.81	-1
0	1045665	87.91	-1
0	1046875	88.01	-1
0	1048073	88.11	-1
0	1049271	88.21	-1
0	1050469	88.31	-1
0	1051667	88.41	-1
0	1052865	88.51	-1
0	1054063	88.61	-1
0	1055261	88.71	-1
0	1056459	88.81	-1
0	1057657	88.91	-1
0	1058867	89.01	-1
0	1060065	89.11	-1
0	1061263	89.21	-1
0	1062461	89.31	-1
0	1063659	89.41	-1
0	1064857	89.51	-1
0	1066055	89.61	-1
0	1067253	89.71	-1
0	1068451	89.81	-1
0	1069649	89.91	-1
0	1070859	90.01	-1
0	1072057	90.11	-1
0	1073255	90.21	-1
0	1074453	90.31	-1
0	1075651	90.41	-1
0	1076849	90.51	-1
0	1078047	90.61	-1
0	1079245	90.71	-1
0	1080443	90.81	-1
0	1081641	90.91	-1
0	1082851	91.01	-1
0	1084049	91.11	-1
0	1085247	91.21	-1
0	1086445	91.31	-1
0	1087643	91.41	-1
0	1088841	91.51	-1
0	1090039	91.61	-1
0	1091237	91.71	-1
0	1092435	91.81	-1
0	1093633	91.91	-1
0	1094843	92.01	-1
0	1096041	92.11	-1
0	1097239	92.21	-1
0	1098437	92.31	-1
0	1099635	92.41	-1
0	1100833	92.51	-1
0	1102031	92.61	-1
0	1103229	92.71	-1
0	1104427	92.81	-1
0	1105625	92.91	-1
0	1106835	93.01	-1
0	1108033	93.11	-1
0	1109231	93.21	-1
0	1110429	93.31	-1
0	1111627	93.41	-1
0	1112825	93.51	-1
0	1114023	93.61	-1
0	1115221	93.71	-1
0	1116419	93.81	-1
0	1117617	93.91	-1
0	1118827	94.01	-1
0	1120025	94.11	-1
0	1121223	94.21	-1
0	1122421	94.31	-1
0	1123619	94.41	-1
0	1124817	94.51	-1
0	1126015	94.61	-1
0	1127213	94.71	-1
0	1128411	94.81	-1
0	1129609	94.91	-1
0	1130819	95.01	-1
0	1132017	95.11	-1
0	1133215	95.21	-1
0	1134413	95.31	-1
0	1135611	95.41	-1
0	1136809	95.51	-1
0	1138007	95.61	-1
0	1139205	95.71	-1
0	1140403	95.81	-1
0	1141601	95.91	-1
0	1142811	96.01	-1
0	1144009	96.11	-1
0	1145207	96.21	-1
0	1146405	96.31	-1
0	1147603	96.41	-1
0	1148801	96.51	-1
0	1149999	96.61	-1
0	1151197	96.71	-1
0	1152395	96.81	-1
0	1153593	96.91	-1
0	1154803	97.01	-1
0	1156001	97.11	-1
0	1157199	97.21	-1
0	1158397	97.31	-1
0	1159595	97.41	-1
0	1160793	97.51	-1
0	1161991	97.61	-1
0	1163189	97.71	-1
0	1164387	97.81	-1
0	1165585	97.91	-1
0	1166795	98.01	-1
0	1167993	98.11	-1
0	1169191	98.21	-1
0	1170389	98.31	-1
0	1171587	98.41	-1
0	1172785	98.51	-1
0	1173983	98.61	-1
0	1175181	98.71	-1
0	1176379	98.81	-1
0	1177577	98.91	-1
0	1178787	99.01	-1
0	1179985	99.11	-1
0	1181183	99.21	-1
0	1182381	99.31	-1
0	1183579	99.41	-1
0	1184777	99.51	-1
0	1185975	99.61	-1
0	1187173	99.71	-1
0	1188371	99.81	-1
0	1189569	99.91	-1
1	113	1.11	0
1	1311	1.21	0
1	2509	1.31	0
1	3707	1.41	0
1	4905	1.51	0
1	6103	1.61	0
1	7301	1.71	0
1	8499	1.81	0
1	9697	1.91	0
1	10907	2.01	0
1	12105	2.11	0
1	13303	2.21	0
1	14501	2.31	0
1	15699	2.41	0
1	16897	2.51	0
1	18095	2.61	0
1	19293	2.71	0
1	20491	2.81	0
1	21689	2.91	0
1	22899	3.01	0
1	24097	3.11	0
1	25295	3.21	0
1	26493	3.31	0
1	27691	3.41	0
1	28889	3.51	0
1	30087	3.61	0
1	31285	3.71	0
1	32483	3.81	0
1	33681	3.91	0
1	34891	4.01	0
1	36089	4.11	0
1	37287	4.21	0
1	38485	4.31	0
1	39683	4.41	0
1	40881	4.51	0
1	42079	4.61	0
1	43277	4.71	0
1	44475	4.81	0
1	45673	4.91	0
1	46883	5.01	0
1	48081	5.11	0
1	49279	5.21	0
1	50477	5.31	0
1	51675	5.41	0
1	52873	5.51	0
1	54071	5.61	0
1	55269	5.71	0
1	56467	5.81	0
1	57665	5.91	0
1	58875	6.01	0
1	60073	6.11	0
1	61271	6.21	0
1	62469	6.31	0
1	63667	6.41	0
1	64865	6.51	0
1	66063	6.61	0
1	67261	6.71	0
1	68459	6.81	0
1	69657	6.91	0
1	70867	7.01	0
1	72065	7.11	0
1	73263	7.21	0
1	74461	7.31	0
1	75659	7.41	0
1	76857	7.51	0
1	78055	7.61	0
1	79253	7.71	0
1	80451	7.81	0
1	81649	7.91	0
1	82859	8.01	0
1	84057	8.11	0
1	85255	8.21	0
1	86453	8.31	0
1	87651	8.41	0
1	88849	8.51	0
1	90047	8.61	0
1	91245	8.71	0
1	92443	8.81	0
1	93641	8.91	0
1	94851	9.01	0
1	96049	9.11	0
1	97247	9.21	0
1	98445	9.31	0
1	99643	9.41	0
1	100841	9.51	0
1	102039	9.61	0
1	103237	9.71	0
1	104435	9.81	0
1	105633	9.91	0
1	111499	10.01	0
1	112697	10.11	0
1	113895	10.21	0
1	115093	10.31	0
1	116291	10.41	0
1	117489	10.51	0
1	118687	10.61	0
1	119885	10.71	0
1	121083	10.81	0
1	122281	10.91	0
1	123491	11.01	0
1	124689	11.11	0
1	125887	11.21	0
1	127085	11.31	0
1	128283	11.41	0
1	129481	11.51	0
1	130679	11.61	0
1	131877	11.71	0
1	133075	11.81	0
1	134273	11.91	0
1	135483	12.01	0
1	136681	12.11	0
1	137879	12.21	0
1	139077	12.31	0
1	140275	12.41	0
1	141473	12.51	0
1	142671	12.61	0
1	143869	12.71	0
1	145067	12.81	0
1	146265	12.91	0
1	147475	13.01	0
1	148673	13.11	0
1	149871	13.21	0
1	151069	13.31	0
1	152267	13.41	0
1	153465	13.51	0
1	154663	13.61	0
1	155861	13.71	0
1	157059	13.81	0
1	158257	13.91	0
1	159467	14.01	0
1	160665	14.11	0
1	161863	14.21	0
1	163061	14.31	0
1	164259	14.41	0
1	165457	14.51	0
1	166655	14.61	0
1	167853	14.71	0
1	169051	14.81	0
1	170249	14.91	0
1	171459	15.01	0
1	172657	15.11	0
1	173855	15.21	0
1	175053	15.31	0
1	176251	15.41	0
1	177449	15.51	0
1	178647	15.61	0
1	179845	15.71	0
1	181043	15.81	0
1	182241	15.91	0
1	183451	16.01	0
1	184649	16.11	0
1	185847	16.21	0
1	187045	16.31	0
1	188243	16.41	0
1	189441	16.51	0
1	190639	16.61	0
1	191837	16.71	0
1	193035	16.81	0
1	194233	16.91	0
1	195443	17.01	0
1	196641	17.11	0
1	197839	17.21	0
1	199037	17.31	0
1	200235	17.41	0
1	201433	17.51	0
1	202631	17.61	0
1	203829	17.71	0
1	205027	17.81	0
1	206225	17.91	0
1	207435	18.01	0
1	208633	18.11	0
1	209831	18.21	0
1	211029	18.31	0
1	212227	18.41	0
1	213425	18.51	0
1	214623	18.61	0
1	215821	18.71	0
1	217019	18.81	0
1	218217	18.91	0
1	219427	19.01	0
1	220625	19.11	0
1	221823	19.21	0
1	223021	19.31	0
1	224219	19.41	0
1	225417	19.51	0
1	226615	19.61	0
1	227813	19.71	0
1	229011	19.81	0
1	230209	19.91	0
1	231419	20.01	0
1	232617	20.11	0
1	233815	20.21	0
1	235013	20.31	0
1	236211	20.41	0
1	237409	20.51	0
1	238607	20.61	0
1	239805	20.71	0
1	241003	20.81	0
1	242201	20.91	0
1	243411	21.01	0
1	244609	21.11	0
1	245807	21.21	0
1	247005	21.31	0
1	248203	21.41	0
1	249401	21.51	0
1	250599	21.61	0
1	251797	21.71	0
1	252995	21.81	0
1	254193	21.91	0
1	255403	22.01	0
1	256601	22.11	0
1	257799	22.21	0
1	258997	22.31	0
1	260195	22.41	0
1	261393	22.51	0
1	262591	22.61	0
1	263789	22.71	0
1	264987	22.81	0
1	266185	22.91	0
1	267395	23.01	0
1	268593	23.11	0
1	269791	23.21	0
1	270989	23.31	0
1	272187	23.41	0
1	273385	23.51	0
1	274583	23.61	0
1	275781	23.71	0
1	276979	23.81	0
1	278177	23.91	0
1	279387	24.01	0
1	280585	24.11	0
1	281783	24.21	0
1	282981	24.31	0
1	284179	24.41	0
1	285377	24.51	0
1	286575	24.61	0
1	287773	24.71	0
1	288971	24.81	0
1	290169	24.91	0
1	291379	25.01	0
1	292577	25.11	0
1	293775	25.21	0
1	294973	25.31	0
1	296171	25.41	0
1	297369	25.51	0
1	298567	25.61	0
1	299765	25.71	0
1	300963	25.81	0
1	302161	25.91	0
1	303371	26.01	0
1	304569	26.11	0
1	305767	26.21	0
1	306965	26.31	0
1	308163	26.41	0
1	309361	26.51	0
1	310559	26.61	0
1	311757	26.71	0
1	312955	26.81	0
1	314153	26.91	0
1	315363	27.01	0
1	316561	27.11	0
1	317759	27.21	0
1	318957	27.31	0
1	320155	27.41	0
1	321353	27.51	0
1	322551	27.61	0
1	323749	27.71	0
1	324947	27.81	0
1	326145	27.91	0
1	327355	28.01	0
1	328553	28.11	0
1	329751	28.21	0
1	330949	28.31	0
1	332147	28.41	0
1	333345	28.51	0
1	334543	28.61	0
1	335741	28.71	0
1	336939	28.81	0
1	338137	28.91	0
1	339347	29.01	0
1	340545	29.11	0
1	341743	29.21	0
1	342941	29.31	0
1	344139	29.41	0
1	345337	29.51	0
1	346535	29.61	0
1	347733	29.71	0
1	348931	29.81	0
1	350129	29.91	0
1	351339	30.01	0
1	352537	30.11	0
1	353735	30.21	0
1	354933	30.31	0
1	356131	30.41	0
1	357329	30.51	0
1	358527	30.61	0
1	359725	30.71	0
1	360923	30.81	0
1	362121	30.91	0
1	363331	31.01	0
1	364529	31.11	0
1	365727	31.21	0
1	366925	31.31	0
1	368123	31.41	0
1	369321	31.51	0
1	370519	31.61	0
1	371717	31.71	0
1	372915	31.81	0
1	374113	31.91	0
1	375323	32.01	0
1	376521	32.11	0
1	377719	32.21	0
1	378917	32.31	0
1	380115	32.41	0
1	381313	32.51	0
1	382511	32.61	0
1	383709	32.71	0
1	384907	32.81	0
1	386105	32.91	0
1	387315	33.01	0
1	388513	33.11	0
1	389711	33.21	0
1	390909	33.31	0
1	392107	33.41	0
1	393305	33.51	0
1	394503	33.61	0
1	395701	33.71	0
1	396899	33.81	0
1	398097	33.91	0
1	399307	34.01	0
1	400505	34.11	0
1	401703	34.21	0
1	402901	34.31	0
1	404099	34.41	0
1	405297	34.51	0
1	406495	34.61	0
1	407693	34.71	0
1	408891	34.81	0
1	410089	34.91	0
1	411299	35.01	0
1	412497	35.11	0
1	413695	35.21	0
1	414893	35.31	0
1	416091	35.41	0
1	417289	35.51	0
1	418487	35.61	0
1	419685	35.71	0
1	420883	35.81	0
1	422081	35.91	0
1	423291	36.01	0
1	424489	36.11	0
1	425687	36.21	0
1	426885	36.31	0
1	428083	36.41	0
1	429281	36.51	0
1	430479	36.61	0
1	431677	36.71	0
1	432875	36.81	0
1	434073	36.91	0
1	435283	37.01	0
1	436481	37.11	0
1	437679	37.21	0
1	438877	37.31	0
1	440075	37.41	0
1	441273	37.51	0
1	442471	37.61	0
1	443669	37.71	0
1	444867	37.81	0
1	446065	37.91	0
1	447275	38.01	0
1	448473	38.11	0
1	449671	38.21	0
1	450869	38.31	0
1	452067	38.41	0
1	453265	38.51	0
1	454463	38.61	0
1	455661	38.71	0
1	456859	38.81	0
1	458057	38.91	0
1	459267	39.01	0
1	460465	39.11	0
1	461663	39.21	0
1	462861	39.31	0
1	464059	39.41	0
1	465257	39.51	0
1	466455	39.61	0
1	467653	39.71	0
1	468851	39.81	0
1	470049	39.91	0
1	471259	40.01	0
1	472457	40.11	0
1	473655	40.21	0
1	474853	40.31	0
1	476051	40.41	0
1	477249	40.51	0
1	478447	40.61	0
1	479645	40.71	0
1	480843	40.81	0
1	482041	40.91	0
1	483251	41.01	0
1	484449	41.11	0
1	485647	41.21	0
1	486845	41.31	0
1	488043	41.41	0
1	489241	41.51	0
1	490439	41.61	0
1	491637	41.71	0
1	492835	41.81	0
1	494033	41.91	0
1	495243	42.01	0
1	496441	42.11	0
1	497639	42.21	0
1	498837	42.31	0
1	500035	42.41	0
1	501233	42.51	0
1	502431	42.61	0
1	503629	42.71	0
1	504827	42.81	0
1	506025	42.91	0
1	507235	43.01	0
1	508433	43.11	0
1	509631	43.21	0
1	510829	43.31	0
1	512027	43.41	0
1	513225	43.51	0
1	514423	43.61	0
1	515621	43.71	0
1	516819	43.81	0
1	518017	43.91	0
1	519227	44.01	0
1	520425	44.11	0
1	521623	44.21	0
1	522821	44.31	0
1	524019	44.41	0
1	525217	44.51	0
1	526415	44.61	0
1	527613	44.71	0
1	528811	44.81	0
1	530009	44.91	0
1	531219	45.01	0
1	532417	45.11	0
1	533615	45.21	0
1	534813	45.31	0
1	536011	45.41	0
1	537209	45.51	0
1	538407	45.61	0
1	539605	45.71	0
1	540803	45.81	0
1	542001	45.91	0
1	543211	46.01	0
1	544409	46.11	0
1	545607	46.21	0
1	546805	46.31	0
1	548003	46.41	0
1	549201	46.51	0
1	550399	46.61	0
1	551597	46.71	0
1	552795	46.81	0
1	553993	46.91	0
1	555203	47.01	0
1	556401	47.11	0
1	557599	47.21	0
1	558797	47.31	0
1	559995	47.41	0
1	561193	47.51	0
1	562391	47.61	0
1	563589	47.71	0
1	564787	47.81	0
1	565985	47.91	0
1	567195	48.01	0
1	568393	48.11	0
1	569591	48.21	0
1	570789	48.31	0
1	571987	48.41	0
1	573185	48.51	0
1	574383	48.61	0
1	575581	48.71	0
1	576779	48.81	0
1	577977	48.91	0
1	579187	49.01	0
1	580385	49.11	0
1	581583	49.21	0
1	582781	49.31	0
1	583979	49.41	0
1	585177	49.51	0
1	586375	49.61	0
1	587573	49.71	0
1	588771	49.81	0
1	589969	49.91	0
1	591179	50.01	0
1	592377	50.11	0
1	593575	50.21	0
1	594773	50.31	0
1	595971	50.41	0
1	597169	50.51	0
1	598367	50.61	0
1	599565	50.71	0
1	600763	50.81	0
1	601961	50.91	0
1	603171	51.01	0
1	604369	51.11	0
1	605567	51.21	0
1	606765	51.31	0
1	607963	51.41	0
1	609161	51.51	0
1	610359	51.61	0
1	611557	51.71	0
1	612755	51.81	0
1	613953	51.91	0
1	615163	52.01	0
1	616361	52.11	0
1	617559	52.21	0
1	618757	52.31	0
1	619955	52.41	0
1	621153	52.51	0
1	622351	52.61	0
1	623549	52.71	0
1	624747	52.81	0
1	625945	52.91	0
1	627155	53.01	0
1	628353	53.11	0
1	629551	53.21	0
1	630749	53.31	0
1	631947	53.41	0
1	633145	53.51	0
1	634343	53.61	0
1	635541	53.71	0
1	636739	53.81	0
1	637937	53.91	0
1	639147	54.01	0
1	640345	54.11	0
1	641543	54.21	0
1	642741	54.31	0
1	643939	54.41	0
1	645137	54.51	0
1	646335	54.61	0
1	647533	54.71	0
1	648731	54.81	0
1	649929	54.91	0
1	651139	55.01	0
1	652337	55.11	0
1	653535	55.21	0
1	654733	55.31	0
1	655931	55.41	0
1	657129	55.51	0
1	658327	55.61	0
1	659525	55.71	0
1	660723	55.81	0
1	661921	55.91	0
1	663131	56.01	0
1	664329	56.11	0
1	665527	56.21	0
1	666725	56.31	0
1	667923	56.41	0
1	669121	56.51	0
1	670319	56.61	0
1	671517	56.71	0
1	672715	56.81	0
1	673913	56.91	0
1	675123	57.01	0
1	676321	57.11	0
1	677519	57.21	0
1	678717	57.31	0
1	679915	57.41	0
1	681113	57.51	0
1	682311	57.61	0
1	683509	57.71	0
1	684707	57.81	0
1	685905	57.91	0
1	687115	58.01	0
1	688313	58.11	0
1	689511	58.21	0
1	690709	58.31	0
1	691907	58.41	0
1	693105	58.51	0
1	694303	58.61	0
1	695501	58.71	0
1	696699	58.81	0
1	697897	58.91	0
1	699107	59.01	0
1	700305	59.11	0
1	701503	59.21	0
1	702701	59.31	0
1	703899	59.41	0
1	705097	59.51	0
1	706295	59.61	0
1	707493	59.71	0
1	708691	59.81	0
1	709889	59.91	0
1	711099	60.01	0
1	712297	60.11	0
1	713495	60.21	0
1	714693	60.31	0
1	715891	60.41	0
1	717089	60.51	0
1	718287	60.61	0
1	719485	60.71	0
1	720683	60.81	0
1	721881	60.91	0
1	723091	61.01	0
1	724289	61.11	0
1	725487	61.21	0
1	726685	61.31	0
1	727883	61.41	0
1	729081	61.51	0
1	730279	61.61	0
1	731477	61.71	0
1	732675	61.81	0
1	733873	61.91	0
1	735083	62.01	0
1	736281	62.11	0
1	737479	62.21	0
1	738677	62.31	0
1	739875	62.41	0
1	741073	62.51	0
1	742271	62.61	0
1	743469	62.71	0
1	744667	62.81	0
1	745865	62.91	0
1	747075	63.01	0
1	748273	63.11	0
1	749471	63.21	0
1	750669	63.31	0
1	751867	63.41	0
1	753065	63.51	0
1	754263	63.61	0
1	755461	63.71	0
1	756659	63.81	0
1	757857	63.91	0
1	759067	64.01	0
1	760265	64.11	0
1	761463	64.21	0
1	762661	64.31	0
1	763859	64.41	0
1	765057	64.51	0
1	766255	64.61	0
1	767453	64.71	0
1	768651	64.81	0
1	769849	64.91	0
1	771059	65.01	0
1	772257	65.11	0
1	773455	65.21	0
1	774653	65.31	0
1	775851	65.41	0
1	777049	65.51	0
1	778247	65.61	0
1	779445	65.71	0
1	780643	65.81	0
1	781841	65.91	0
1	783051	66.01	0
1	784249	66.11	0
1	785447	66.21	0
1	786645	66.31	0
1	787843	66.41	0
1	789041	66.51	0
1	790239	66.61	0
1	791437	66.71	0
1	792635	66.81	0
1	793833	66.91	0
1	795043	67.01	0
1	796241	67.11	0
1	797439	67.21	0
1	798637	67.31	0
1	799835	67.41	0
1	801033	67.51	0
1	802231	67.61	0
1	803429	67.71	0
1	804627	67.81	0
1	805825	67.91	0
1	807035	68.01	0
1	808233	68.11	0
1	809431	68.21	0
1	810629	68.31	0
1	811827	68.41	0
1	813025	68.51	0
1	814223	68.61	0
1	815421	68.71	0
1	816619	68.81	0
1	817817	68.91	0
1	819027	69.01	0
1	820225	69.11	0
1	821423	69.21	0
1	822621	69.31	0
1	823819	69.41	0
1	825017	69.51	0
1	826215	69.61	0
1	827413	69.71	0
1	828611	69.81	0
1	829809	69.91	0
1	831019	70.01	0
1	832217	70.11	0
1	833415	70.21	0
1	834613	70.31	0
1	835811	70.41	0
1	837009	70.51	0
1	838207	70.61	0
1	839405	70.71	0
1	840603	70.81	0
1	841801	70.91	0
1	843011	71.01	0
1	844209	71.11	0
1	845407	71.21	0
1	846605	71.31	0
1	847803	71.41	0
1	849001	71.51	0
1	850199	71.61	0
1	851397	71.71	0
1	852595	71.81	0
1	853793	71.91	0
1	855003	72.01	0
1	856201	72.11	0
1	857399	72.21	0
1	858597	72.31	0
1	859795	72.41	0
1	860993	72.51	0
1	862191	72.61	0
1	863389	72.71	0
1	864587	72.81	0
1	865785	72.91	0
1	866995	73.01	0
1	868193	73.11	0
1	869391	73.21	0
1	870589	73.31	0
1	871787	73.41	0
1	872985	73.51	0
1	874183	73.61	0
1	875381	73.71	0
1	876579	73.81	0
1	877777	73.91	0
1	878987	74.01	0
1	880185	74.11	0
1	881383	74.21	0
1	882581	74.31	0
1	883779	74.41	0
1	884977	74.51	0
1	886175	74.61	0
1	887373	74.71	0
1	888571	74.81	0
1	889769	74.91	0
1	890979	75.01	0
1	892177	75.11	0
1	893375	75.21	0
1	894573	75.31	0
1	895771	75.41	0
1	896969	75.51	0
1	898167	75.61	0
1	899365	75.71	0
1	900563	75.81	0
1	901761	75.91	0
1	902971	76.01	0
1	904169	76.11	0
1	905367	76.21	0
1	906565	76.31	0
1	907763	76.41	0
1	908961	76.51	0
1	910159	76.61	0
1	911357	76.71	0
1	912555	76.81	0
1	913753	76.91	0
1	914963	77.01	0
1	916161	77.11	0
1	917359	77.21	0
1	918557	77.31	0
1	919755	77.41	0
1	920953	77.51	0
1	922151	77.61	0
1	923349	77.71	0
1	924547	77.81	0
1	925745	77.91	0
1	926955	78.01	0
1	928153	78.11	0
1	929351	78.21	0
1	930549	78.31	0
1	931747	78.41	0
1	932945	78.51	0
1	934143	78.61	0
1	935341	78.71	0
1	936539	78.81	0
1	937737	78.91	0
1	938947	79.01	0
1	940145	79.11	0
1	941343	79.21	0
1	942541	79.31	0
1	943739	79.41	0
1	944937	79.51	0
1	946135	79.61	0
1	947333	79.71	0
1	948531	79.81	0
1	949729	79.91	0
1	950939	80.01	0
1	952137	80.11	0
1	953335	80.21	0
1	954533	80.31	0
1	955731	80.41	0
1	956929	80.51	0
1	958127	80.61	0
1	959325	80.71	0
1	960523	80.81	0
1	961721	80.91	0
1	962931	81.01	0
1	964129	81.11	0
1	965327	81.21	0
1	966525	81.31	0
1	967723	81.41	0
1	968921	81.51	0
1	970119	81.61	0
1	971317	81.71	0
1	972515	81.81	0
1	973713	81.91	0
1	974923	82.01	0
1	976121	82.11	0
1	977319	82.21	0
1	978517	82.31	0
1	979715	82.41	0
1	980913	82.51	0
1	982111	82.61	0
1	983309	82.71	0
1	984507	82.81	0
1	985705	82.91	0
1	986915	83.01	0
1	988113	83.11	0
1	989311	83.21	0
1	990509	83.31	0
1	991707	83.41	0
1	992905	83.51	0
1	994103	83.61	0
1	995301	83.71	0
1	996499	83.81	0
1	997697	83.91	0
1	998907	84.01	0
1	1000105	84.11	0
1	1001303	84.21	0
1	1002501	84.31	0
1	1003699	84.41	0
1	1004897	84.51	0
1	1006095	84.61	0
1	1007293	84.71	0
1	1008491	84.81	0
1	1009689	84.91	0
1	1010899	85.01	0
1	1012097	85.11	0
1	1013295	85.21	0
1	1014493	85.31	0
1	1015691	85.41	0
1	1016889	85.51	0
1	1018087	85.61	0
1	1019285	85.71	0
1	1020483	85.81	0
1	1021681	85.91	0
1	1022891	86.01	0
1	1024089	86.11	0
1	1025287	86.21	0
1	1026485	86.31	0
1	1027683	86.41	0
1	1028881	86.51	0
1	1030079	86.61	0
1	1031277	86.71	0
1	1032475	86.81	0
1	1033673	86.91	0
1	1034883	87.01	0
1	1036081	87.11	0
1	1037279	87.21	0
1	1038477	87.31	0
1	1039675	87.41	0
1	1040873	87.51	0
1	1042071	87.61	0
1	1043269	87.71	0
1	1044467	87.81	0
1	1045665	87.91	0
1	1046875	88.01	0
1	1048073	88.11	0
1	1049271	88.21	0
1	1050469	88.31	0
1	1051667	88.41	0
1	1052865	88.51	0
1	1054063	88.61	0
1	1055261	88.71	0
1	1056459	88.81	0
1	1057657	88.91	0
1	1058867	89.01	0
1	1060065	89.11	0
1	1061263	89.21	0
1	1062461	89.31	0
1	1063659	89.41	0
1	1064857	89.51	0
1	1066055	89.61	0
1	1067253	89.71	0
1	1068451	89.81	0
1	1069649	89.91	0
1	1070859	90.01	0
1	1072057	90.11	0
1	1073255	90.21	0
1	1074453	90.31	0
1	1075651	90.41	0
1	1076849	90.51	0
1	1078047	90.61	0
1	1079245	90.71	0
1	1080443	90.81	0
1	1081641	90.91	0
1	1082851	91.01	0
1	1084049	91.11	0
1	1085247	91.21	0
1	1086445	91.31	0
1	1087643	91.41	0
1	1088841	91.51	0
1	1090039	91.61	0
1	1091237	91.71	0
1	1092435	91.81	0
1	1093633	91.91	0
1	1094843	92.01	0
1	1096041	92.11	0
1	1097239	92.21	0
1	1098437	92.31	0
1	1099635	92.41	0
1	1100833	92.51	0
1	1102031	92.61	0
1	1103229	92.71	0
1	1104427	92.81	0
1	1105625	92.91	0
1	1106835	93.01	0
1	1108033	93.11	0
1	1109231	93.21	0
1	1110429	93.31	0
1	1111627	93.41	0
1	1112825	93.51	0
1	1114023	93.61	0
1	1115221	93.71	0
1	1116419	93.81	0
1	1117617	93.91	0
1	1118827	94.01	0
1	1120025	94.11	0
1	1121223	94.21	0
1	1122421	94.31	0
1	1123619	94.41	0
1	1124817	94.51	0
1	1126015	94.61	0
1	1127213	94.71	0
1	1128411	94.81	0
1	1129609	94.91	0
1	1130819	95.01	0
1	1132017	95.11	0
1	1133215	95.21	0
1	1134413	95.31	0
1	1135611	95.41	0
1	1136809	95.51	0
1	1138007	95.61	0
1	1139205	95.71	0
1	1140403	95.81	0
1	1141601	95.91	0
1	1142811	96.01	0
1	1144009	96.11	0
1	1145207	96.21	0
1	1146405	96.31	0
1	1147603	96.41	0
1	1148801	96.51	0
1	1149999	96.61	0
1	1151197	96.71	0
1	1152395	96.81	0
1	1153593	96.91	0
1	1154803	97.01	0
1	1156001	97.11	0
1	1157199	97.21	0
1	1158397	97.31	0
1	1159595	97.41	0
1	1160793	97.51	0
1	1161991	97.61	0
1	1163189	97.71	0
1	1164387	97.81	0
1	1165585	97.91	0
1	1166795	98.01	0
1	1167993	98.11	0
1	1169191	98.21	0
1	1170389	98.31	0
1	1171587	98.41	0
1	1172785	98.51	0
1	1173983	98.61	0
1	1175181	98.71	0
1	1176379	98.81	0
1	1177577	98.91	0
1	1178787	99.01	0
1	1179985	99.11	0
1	1181183	99.21	0
1	1182381	99.31	0
1	1183579	99.41	0
1	1184777	99.51	0
1	1185975	99.61	0
1	1187173	99.71	0
1	1188371	99.81	0
1	1189569	99.91	0
2	113	1.11	0
2	1311	1.21	0
2	2509	1.31	0
2	3707	1.41	0
2	4905	1.51	0
2	6103	1.61	0
2	7301	1.71	0
2	8499	1.81	0
2	9697	1.91	0
2	10907	2.01	0
2	12105	2.11	0
2	13303	2.21	0
2	14501	2.31	0
2	15699	2.41	0
2	16897	2.51	0
2	18095	2.61	0
2	19293	2.71	0
2	20491	2.81	0
2	21689	2.91	0
2	22899	3.01	0
2	24097	3.11	0
2	25295	3.21	0
2	26493	3.31	0
2	27691	3.41	0
2	28889	3.51	0
2	30087	3.61	0
2	31285	3.71	0
2	32483	3.81	0
2	33681	3.91	0
2	34891	4.01	0
2	36089	4.11	0
2	37287	4.21	0
2	38485	4.31	0
2	39683	4.41	0
2	40881	4.51	0
2	42079	4.61	0
2	43277	4.71	0
2	44475	4.81	0
2	45673	4.91	0
2	46883	5.01	0
2	48081	5.11	0
2	49279	5.21	0
2	50477	5.31	0
2	51675	5.41	0
2	52873	5.51	0
2	54071	5.61	0
2	55269	5.71	0
2	56467	5.81	0
2	57665	5.91	0
2	58875	6.01	0
2	60073	6.11	0
2	61271	6.21	0
2	62469	6.31	0
2	63667	6.41	0
2	64865	6.51	0
2	66063	6.61	0
2	67261	6.71	0
2	68459	6.81	0
2	69657	6.91	0
2	70867	7.01	0
2	72065	7.11	0
2	73263	7.21	0
2	74461	7.31	0
2	75659	7.41	0
2	76857	7.51	0
2	78055	7.61	0
2	79253	7.71	0
2	80451	7.81	0
2	81649	7.91	0
2	82859	8.01	0
2	84057	8.11	0
2	85255	8.21	0
2	86453	8.31	0
2	87651	8.41	0
2	88849	8.51	0
2	90047	8.61	0
2	91245	8.71	0
2	92443	8.81	0
2	93641	8.91	0
2	94851	9.01	0
2	96049	9.11	0
2	97247	9.21	0
2	98445	9.31	0
2	99643	9.41	0
2	100841	9.51	0
2	102039	9.61	0
2	103237	9.71	0
2	104435	9.81	0
2	105633	9.91	0
2	111499	10.01	0
2	112697	10.11	0
2	113895	10.21	0
2	115093	10.31	0
2	116291	10.41	0
2	117489	10.51	0
2	118687	10.61	0
2	119885	10.71	0
2	121083	10.81	0
2	122281	10.91	0
2	123491	11.01	0
2	124689	11.11	0
2	125887	11.21	0
2	127085	11.31	0
2	128283	11.41	0
2	129481	11.51	0
2	130679	11.61	0
2	131877	11.71	0
2	133075	11.81	0
2	134273	11.91	0
2	135483	12.01	0
2	136681	12.11	0
2	137879	12.21	0
2	139077	12.31	0
2	140275	12.41	0
2	141473	12.51	0
2	142671	12.61	0
2	143869	12.71	0
2	145067	12.81	0
2	146265	12.91	0
2	147475	13.01	0
2	148673	13.11	0
2	149871	13.21	0
2	151069	13.31	0
2	152267	13.41	0
2	153465	13.51	0
2	154663	13.61	0
2	155861	13.71	0
2	157059	13.81	0
2	158257	13.91	0
2	159467	14.01	0
2	160665	14.11	0
2	161863	14.21	0
2	163061	14.31	0
2	164259	14.41	0
2	165457	14.51	0
2	166655	14.61	0
2	167853	14.71	0
2	169051	14.81	0
2	170249	14.91	0
2	171459	15.01	0
2	172657	15.11	0
2	173855	15.21	0
2	175053	15.31	0
2	176251	15.41	0
2	177449	15.51	0
2	178647	15.61	0
2	179845	15.71	0
2	181043	15.81	0
2	182241	15.91	0
2	183451	16.01	0
2	184649	16.11	0
2	185847	16.21	0
2	187045	16.31	0
2	188243	16.41	0
2	189441	16.51	0
2	190639	16.61	0
2	191837	16.71	0
2	193035	16.81	0
2	194233	16.91	0
2	195443	17.01	0
2	196641	17.11	0
2	197839	17.21	0
2	199037	17.31	0
2	200235	17.41	0
2	201433	17.51	0
2	202631	17.61	0
2	203829	17.71	0
2	205027	17.81	0
2	206225	17.91	0
2	207435	18.01	0
2	208633	18.11	0
2	209831	18.21	0
2	211029	18.31	0
2	212227	18.41	0
2	213425	18.51	0
2	214623	18.61	0
2	215821	18.71	0
2	217019	18.81	0
2	218217	18.91	0
2	219427	19.01	0
2	220625	19.11	0
2	221823	19.21	0
2	223021	19.31	0
2	224219	19.41	0
2	225417	19.51	0
2	226615	19.61	0
2	227813	19.71	0
2	229011	19.81	0
2	230209	19.91	0
2	231419	20.01	0
2	232617	20.11	0
2	233815	20.21	0
2	235013	20.31	0
2	236211	20.41	0
2	237409	20.51	0
2	238607	20.61	0
2	239805	20.71	0
2	241003	20.81	0
2	242201	20.91	0
2	243411	21.01	0
2	244609	21.11	0
2	245807	21.21	0
2	247005	21.31	0
2	248203	21.41	0
2	249401	21.51	0
2	250599	21.61	0
2	251797	21.71	0
2	252995	21.81	0
2	254193	21.91	0
2	255403	22.01	0
2	256601	22.11	0
2	257799	22.21	0
2	258997	22.31	0
2	260195	22.41	0
2	261393	22.51	0
2	262591	22.61	0
2	263789	22.71	0
2	264987	22.81	0
2	266185	22.91	0
2	267395	23.01	0
2	268593	23.11	0
2	269791	23.21	0
2	270989	23.31	0
2	272187	23.41	0
2	273385	23.51	0
2	274583	23.61	0
2	275781	23.71	0
2	276979	23.81	0
2	278177	23.91	0
2	279387	24.01	0
2	280585	24.11	0
2	281783	24.21	0
2	282981	24.31	0
2	284179	24.41	0
2	285377	24.51	0
2	286575	24.61	0
2	287773	24.71	0
2	288971	24.81	0
2	290169	24.91	0
2	291379	25.01	0
2	292577	25.11	0
2	293775	25.21	0
2	294973	25.31	0
2	296171	25.41	0
2	297369	25.51	0
2	298567	25.61	0
2	299765	25.71	0
2	300963	25.81	0
2	302161	25.91	0
2	303371	26.01	0
2	304569	26.11	0
2	305767	26.21	0
2	306965	26.31	0
2	308163	26.41	0
2	309361	26.51	0
2	310559	26.61	0
2	311757	26.71	0
2	312955	26.81	0
2	314153	26.91	0
2	315363	27.01	0
2	316561	27.11	0
2	317759	27.21	0
2	318957	27.31	0
2	320155	27.41	0
2	321353	27.51	0
2	322551	27.61	0
2	323749	27.71	0
2	324947	27.81	0
2	326145	27.91	0
2	327355	28.01	0
2	328553	28.11	0
2	329751	28.21	0
2	330949	28.31	0
2	332147	28.41	0
2	333345	28.51	0
2	334543	28.61	0
2	335741	28.71	0
2	336939	28.81	0
2	338137	28.91	0
2	339347	29.01	0
2	340545	29.11	0
2	341743	29.21	0
2	342941	29.31	0
2	344139	29.41	0
2	345337	29.51	0
2	346535	29.61	0
2	347733	29.71	0
2	348931	29.81	0
2	350129	29.91	0
2	351339	30.01	0
2	352537	30.11	0
2	353735	30.21	0
2	354933	30.31	0
2	356131	30.41	0
2	357329	30.51	0
2	358527	30.61	0
2	359725	30.71	0
2	360923	30.81	0
2	362121	30.91	0
2	363331	31.01	0
2	364529	31.11	0
2	365727	31.21	0
2	366925	31.31	0
2	368123	31.41	0
2	369321	31.51	0
2	370519	31.61	0
2	371717	31.71	0
2	372915	31.81	0
2	374113	31.91	0
2	375323	32.01	0
2	376521	32.11	0
2	377719	32.21	0
2	378917	32.31	0
2	380115	32.41	0
2	381313	32.51	0
2	382511	32.61	0
2	383709	32.71	0
2	384907	32.81	0
2	386105	32.91	0
2	387315	33.01	0
2	388513	33.11	0
2	389711	33.21	0
2	390909	33.31	0
2	392107	33.41	0
2	393305	33.51	0
2	394503	33.61	0
2	395701	33.71	0
2	396899	33.81	0
2	398097	33.91	0
2	399307	34.01	0
2	400505	34.11	0
2	401703	34.21	0
2	402901	34.31	0
2	404099	34.41	0
2	405297	34.51	0
2	406495	34.61	0
2	407693	34.71	0
2	408891	34.81	0
2	410089	34.91	0
2	411299	35.01	0
2	412497	35.11	0
2	413695	35.21	0
2	414893	35.31	0
2	416091	35.41	0
2	417289	35.51	0
2	418487	35.61	0
2	419685	35.71	0
2	420883	35.81	0
2	422081	35.91	0
2	423291	36.01	0
2	424489	36.11	0
2	425687	36.21	0
2	426885	36.31	0
2	428083	36.41	0
2	429281	36.51	0
2	430479	36.61	0
2	431677	36.71	0
2	432875	36.81	0
2	434073	36.91	0
2	435283	37.01	0
2	436481	37.11	0
2	437679	37.21	0
2	438877	37.31	0
2	440075	37.41	0
2	441273	37.51	0
2	442471	37.61	0
2	443669	37.71	0
2	444867	37.81	0
2	446065	37.91	0
2	447275	38.01	0
2	448473	38.11	0
2	449671	38.21	0
2	450869	38.31	0
2	452067	38.41	0
2	453265	38.51	0
2	454463	38.61	0
2	455661	38.71	0
2	456859	38.81	0
2	458057	38.91	0
2	459267	39.01	0
2	460465	39.11	0
2	461663	39.21	0
2	462861	39.31	0
2	464059	39.41	0
2	465257	39.51	0
2	466455	39.61	0
2	467653	39.71	0
2	468851	39.81	0
2	470049	39.91	0
2	471259	40.01	0
2	472457	40.11	0
2	473655	40.21	0
2	474853	40.31	0
2	476051	40.41	0
2	477249	40.51	0
2	478447	40.61	0
2	479645	40.71	0
2	480843	40.81	0
2	482041	40.91	0
2	483251	41.01	0
2	484449	41.11	0
2	485647	41.21	0
2	486845	41.31	0
2	488043	41.41	0
2	489241	41.51	0
2	490439	41.61	0
2	491637	41.71	0
2	492835	41.81	0
2	494033	41.91	0
2	495243	42.01	0
2	496441	42.11	0
2	497639	42.21	0
2	498837	42.31	0
2	500035	42.41	0
2	501233	42.51	0
2	502431	42.61	0
2	503629	42.71	0
2	504827	42.81	0
2	506025	42.91	0
2	507235	43.01	0
2	508433	43.11	0
2	509631	43.21	0
2	510829	43.31	0
2	512027	43.41	0
2	513225	43.51	0
2	514423	43.61	0
2	515621	43.71	0
2	516819	43.81	0
2	518017	43.91	0
2	519227	44.01	0
2	520425	44.11	0
2	521623	44.21	0
2	522821	44.31	0
2	524019	44.41	0
2	525217	44.51	0
2	526415	44.61	0
2	527613	44.71	0
2	528811	44.81	0
2	530009	44.91	0
2	531219	45.01	0
2	532417	45.11	0
2	533615	45.21	0
2	534813	45.31	0
2	536011	45.41	0
2	537209	45.51	0
2	538407	45.61	0
2	539605	45.71	0
2	540803	45.81	0
2	542001	45.91	0
2	543211	46.01	0
2	544409	46.11	0
2	545607	46.21	0
2	546805	46.31	0
2	548003	46.41	0
2	549201	46.51	0
2	550399	46.61	0
2	551597	46.71	0
2	552795	46.81	0
2	553993	46.91	0
2	555203	47.01	0
2	556401	47.11	0
2	557599	47.21	0
2	558797	47.31	0
2	559995	47.41	0
2	561193	47.51	0
2	562391	47.61	0
2	563589	47.71	0
2	564787	47.81	0
2	565985	47.91	0
2	567195	48.01	0
2	568393	48.11	0
2	569591	48.21	0
2	570789	48.31	0
2	571987	48.41	0
2	573185	48.51	0
2	574383	48.61	0
2	575581	48.71	0
2	576779	48.81	0
2	577977	48.91	0
2	579187	49.01	0
2	580385	49.11	0
2	581583	49.21	0
2	582781	49.31	0
2	583979	49.41	0
2	585177	49.51	0
2	586375	49.61	0
2	587573	49.71	0
2	588771	49.81	0
2	589969	49.91	0
2	591179	50.01	0
2	592377	50.11	0
2	593575	50.21	0
2	594773	50.31	0
2	595971	50.41	0
2	597169	50.51	0
2	598367	50.61	0
2	599565	50.71	0
2	600763	50.81	0
2	601961	50.91	0
2	603171	51.01	0
2	604369	51.11	0
2	605567	51.21	0
2	606765	51.31	0
2	607963	51.41	0
2	609161	51.51	0
2	610359	51.61	0
2	611557	51.71	0
2	612755	51.81	0
2	613953	51.91	0
2	615163	52.01	0
2	616361	52.11	0
2	617559	52.21	0
2	618757	52.31	0
2	619955	52.41	0
2	621153	52.51	0
2	622351	52.61	0
2	623549	52.71	0
2	624747	52.81	0
2	625945	52.91	0
2	627155	53.01	0
2	628353	53.11	0
2	629551	53.21	0
2	630749	53.31	0
2	631947	53.41	0
2	633145	53.51	0
2	634343	53.61	0
2	635541	53.71	0
2	636739	53.81	0
2	637937	53.91	0
2	639147	54.01	0
2	640345	54.11	0
2	641543	54.21	0
2	642741	54.31	0
2	643939	54.41	0
2	645137	54.51	0
2	646335	54.61	0
2	647533	54.71	0
2	648731	54.81	0
2	649929	54.91	0
2	651139	55.01	0
2	652337	55.11	0
2	653535	55.21	0
2	654733	55.31	0
2	655931	55.41	0
2	657129	55.51	0
2	658327	55.61	0
2	659525	55.71	0
2	660723	55.81	0
2	661921	55.91	0
2	663131	56.01	0
2	664329	56.11	0
2	665527	56.21	0
2	666725	56.31	0
2	667923	56.41	0
2	669121	56.51	0
2	670319	56.61	0
2	671517	56.71	0
2	672715	56.81	0
2	673913	56.91	0
2	675123	57.01	0
2	676321	57.11	0
2	677519	57.21	0
2	678717	57.31	0
2	679915	57.41	0
2	681113	57.51	0
2	682311	57.61	0
2	683509	57.71	0
2	684707	57.81	0
2	685905	57.91	0
2	687115	58.01	0
2	688313	58.11	0
2	689511	58.21	0
2	690709	58.31	0
2	691907	58.41	0
2	693105	58.51	0
2	694303	58.61	0
2	695501	58.71	0
2	696699	58.81	0
2	697897	58.91	0
2	699107	59.01	0
2	700305	59.11	0
2	701503	59.21	0
2	702701	59.31	0
2	703899	59.41	0
2	705097	59.51	0
2	706295	59.61	0
2	707493	59.71	0
2	708691	59.81	0
2	709889	59.91	0
2	711099	60.01	0
2	712297	60.11	0
2	713495	60.21	0
2	714693	60.31	0
2	715891	60.41	0
2	717089	60.51	0
2	718287	60.61	0
2	719485	60.71	0
2	720683	60.81	0
2	721881	60.91	0
2	723091	61.01	0
2	724289	61.11	0
2	725487	61.21	0
2	726685	61.31	0
2	727883	61.41	0
2	729081	61.51	0
2	730279	61.61	0
2	731477	61.71	0
2	732675	61.81	0
2	733873	61.91	0
2	735083	62.01	0
2	736281	62.11	0
2	737479	62.21	0
2	738677	62.31	0
2	739875	62.41	0
2	741073	62.51	0
2	742271	62.61	0
2	743469	62.71	0
2	744667	62.81	0
2	745865	62.91	0
2	747075	63.01	0
2	748273	63.11	0
2	749471	63.21	0
2	750669	63.31	0
2	751867	63.41	0
2	753065	63.51	0
2	754263	63.61	0
2	755461	63.71	0
2	756659	63.81	0
2	757857	63.91	0
2	759067	64.01	0
2	760265	64.11	0
2	761463	64.21	0
2	762661	64.31	0
2	763859	64.41	0
2	765057	64.51	0
2	766255	64.61	0
2	767453	64.71	0
2	768651	64.81	0
2	769849	64.91	0
2	771059	65.01	0
2	772257	65.11	0
2	773455	65.21	0
2	774653	65.31	0
2	775851	65.41	0
2	777049	65.51	0
2	778247	65.61	0
2	779445	65.71	0
2	780643	65.81	0
2	781841	65.91	0
2	783051	66.01	0
2	784249	66.11	0
2	785447	66.21	0
2	786645	66.31	0
2	787843	66.41	0
2	789041	66.51	0
2	790239	66.61	0
2	791437	66.71	0
2	792635	66.81	0
2	793833	66.91	0
2	795043	67.01	0
2	796241	67.11	0
2	797439	67.21	0
2	798637	67.31	0
2	799835	67.41	0
2	801033	67.51	0
2	802231	67.61	0
2	803429	67.71	0
2	804627	67.81	0
2	805825	67.91	0
2	807035	68.01	0
2	808233	68.11	0
2	809431	68.21	0
2	810629	68.31	0
2	811827	68.41	0
2	813025	68.51	0
2	814223	68.61	0
2	815421	68.71	0
2	816619	68.81	0
2	817817	68.91	0
2	819027	69.01	0
2	820225	69.11	0
2	821423	69.21	0
2	822621	69.31	0
2	823819	69.41	0
2	825017	69.51	0
2	826215	69.61	0
2	827413	69.71	0
2	828611	69.81	0
2	829809	69.91	0
2	831019	70.01	0
2	832217	70.11	0
2	833415	70.21	0
2	834613	70.31	0
2	835811	70.41	0
2	837009	70.51	0
2	838207	70.61	0
2	839405	70.71	0
2	840603	70.81	0
2	841801	70.91	0
2	843011	71.01	0
2	844209	71.11	0
2	845407	71.21	0
2	846605	71.31	0
2	847803	71.41	0
2	849001	71.51	0
2	850199	71.61	0
2	851397	71.71	0
2	852595	71.81	0
2	853793	71.91	0
2	855003	72.01	0
2	856201	72.11	0
2	857399	72.21	0
2	858597	72.31	0
2	859795	72.41	0
2	860993	72.51	0
2	862191	72.61	0
2	863389	72.71	0
2	864587	72.81	0
2	865785	72.91	0
2	866995	73.01	0
2	868193	73.11	0
2	869391	73.21	0
2	870589	73.31	0
2	871787	73.41	0
2	872985	73.51	0
2	874183	73.61	0
2	875381	73.71	0
2	876579	73.81	0
2	877777	73.91	0
2	878987	74.01	0
2	880185	74.11	0
2	881383	74.21	0
2	882581	74.31	0
2	883779	74.41	0
2	884977	74.51	0
2	886175	74.61	0
2	887373	74.71	0
2	888571	74.81	0
2	889769	74.91	0
2	890979	75.01	0
2	892177	75.11	0
2	893375	75.21	0
2	894573	75.31	0
2	895771	75.41	0
2	896969	75.51	0
2	898167	75.61	0
2	899365	75.71	0
2	900563	75.81	0
2	901761	75.91	0
2	902971	76.01	0
2	904169	76.11	0
2	905367	76.21	0
2	906565	76.31	0
2	907763	76.41	0
2	908961	76.51	0
2	910159	76.61	0
2	911357	76.71	0
2	912555	76.81	0
2	913753	76.91	0
2	914963	77.01	0
2	916161	77.11	0
2	917359	77.21	0
2	918557	77.31	0
2	919755	77.41	0
2	920953	77.51	0
2	922151	77.61	0
2	923349	77.71	0
2	924547	77.81	0
2	925745	77.91	0
2	926955	78.01	0
2	928153	78.11	0
2	929351	78.21	0
2	930549	78.31	0
2	931747	78.41	0
2	932945	78.51	0
2	934143	78.61	0
2	935341	78.71	0
2	936539	78.81	0
2	937737	78.91	0
2	938947	79.01	0
2	940145	79.11	0
2	941343	79.21	0
2	942541	79.31	0
2	943739	79.41	0
2	944937	79.51	0
2	946135	79.61	0
2	947333	79.71	0
2	948531	79.81	0
2	949729	79.91	0
2	950939	80.01	0
2	952137	80.11	0
2	953335	80.21	0
2	954533	80.31	0
2	955731	80.41	0
2	956929	80.51	0
2	958127	80.61	0
2	959325	80.71	0
2	960523	80.81	0
2	961721	80.91	0
2	962931	81.01	0
2	964129	81.11	0
2	965327	81.21	0
2	966525	81.31	0
2	967723	81.41	0
2	968921	81.51	0
2	970119	81.61	0
2	971317	81.71	0
2	972515	81.81	0
2	973713	81.91	0
2	974923	82.01	0
2	976121	82.11	0
2	977319	82.21	0
2	978517	82.31	0
2	979715	82.41	0
2	980913	82.51	0
2	982111	82.61	0
2	983309	82.71	0
2	984507	82.81	0
2	985705	82.91	0
2	986915	83.01	0
2	988113	83.11	0
2	989311	83.21	0
2	990509	83.31	0
2	991707	83.41	0
2	992905	83.51	0
2	994103	83.61	0
2	995301	83.71	0
2	996499	83.81	0
2	997697	83.91	0
2	998907	84.01	0
2	1000105	84.11	0
2	1001303	84.21	0
2	1002501	84.31	0
2	1003699	84.41	0
2	1004897	84.51	0
2	1006095	84.61	0
2	1007293	84.71	0
2	1008491	84.81	0
2	1009689	84.91	0
2	1010899	85.01	0
2	1012097	85.11	0
2	1013295	85.21	0
2	1014493	85.31	0
2	1015691	85.41	0
2	1016889	85.51	0
2	1018087	85.61	0
2	1019285	85.71	0
2	1020483	85.81	0
2	1021681	85.91	0
2	1022891	86.01	0
2	1024089	86.11	0
2	1025287	86.21	0
2	1026485	86.31	0
2	1027683	86.41	0
2	1028881	86.51	0
2	1030079	86.61	0
2	1031277	86.71	0
2	1032475	86.81	0
2	1033673	86.91	0
2	1034883	87.01	0
2	1036081	87.11	0
2	1037279	87.21	0
2	1038477	87.31	0
2	1039675	87.41	0
2	1040873	87.51	0
2	1042071	87.61	0
2	1043269	87.71	0
2	1044467	87.81	0
2	1045665	87.91	0
2	1046875	88.01	0
2	1048073	88.11	0
2	1049271	88.21	0
2	1050469	88.31	0
2	1051667	88.41	0
2	1052865	88.51	0
2	1054063	88.61	0
2	1055261	88.71	0
2	1056459	88.81	0
2	1057657	88.91	0
2	1058867	89.01	0
2	1060065	89.11	0
2	1061263	89.21	0
2	1062461	89.31	0
2	1063659	89.41	0
2	1064857	89.51	0
2	1066055	89.61	0
2	1067253	89.71	0
2	1068451	89.81	0
2	1069649	89.91	0
2	1070859	90.01	0
2	1072057	90.11	0
2	1073255	90.21	0
2	1074453	90.31	0
2	1075651	90.41	0
2	1076849	90.51	0
2	1078047	90.61	0
2	1079245	90.71	0
2	1080443	90.81	0
2	1081641	90.91	0
2	1082851	91.01	0
2	1084049	91.11	0
2	1085247	91.21	0
2	1086445	91.31	0
2	1087643	91.41	0
2	1088841	91.51	0
2	1090039	91.61	0
2	1091237	91.71	0
2	1092435	91.81	0
2	1093633	91.91	0
2	1094843	92.01	0
2	1096041	92.11	0
2	1097239	92.21	0
2	1098437	92.31	0
2	1099635	92.41	0
2	1100833	92.51	0
2	1102031	92.61	0
2	1103229	92.71	0
2	1104427	92.81	0
2	1105625	92.91	0
2	1106835	93.01	0
2	1108033	93.11	0
2	1109231	93.21	0
2	1110429	93.31	0
2	1111627	93.41	0
2	1112825	93.51	0
2	1114023	93.61	0
2	1115221	93.71	0
2	1116419	93.81	0
2	1117617	93.91	0
2	1118827	94.01	0
2	1120025	94.11	0
2	1121223	94.21	0
2	1122421	94.31	0
2	1123619	94.41	0
2	1124817	94.51	0
2	1126015	94.61	0
2	1127213	94.71	0
2	1128411	94.81	0
2	1129609	94.91	0
2	1130819	95.01	0
2	1132017	95.11	0
2	1133215	95.21	0
2	1134413	95.31	0
2	1135611	95.41	0
2	1136809	95.51	0
2	1138007	95.61	0
2	1139205	95.71	0
2	1140403	95.81	0
2	1141601	95.91	0
2	1142811	96.01	0
2	1144009	96.11	0
2	1145207	96.21	0
2	1146405	96.31	0
2	1147603	96.41	0
2	1148801	96.51	0
2	1149999	96.61	0
2	1151197	96.71	0
2	1152395	96.81	0
2	1153593	96.91	0
2	1154803	97.01	0
2	1156001	97.11	0
2	1157199	97.21	0
2	1158397	97.31	0
2	1159595	97.41	0
2	1160793	97.51	0
2	1161991	97.61	0
2	1163189	97.71	0
2	1164387	97.81	0
2	1165585	97.91	0
2	1166795	98.01	0
2	1167993	98.11	0
2	1169191	98.21	0
2	1170389	98.31	0
2	1171587	98.41	0
2	1172785	98.51	0
2	1173983	98.61	0
2	1175181	98.71	0
2	1176379	98.81	0
2	1177577	98.91	0
2	1178787	99.01	0
2	1179985	99.11	0
2	1181183	99.21	0
2	1182381	99.31	0
2	1183579	99.41	0
2	1184777	99.51	0
2	1185975	99.61	0
2	1187173	99.71	0
2	1188371	99.81	0
2	1189569	99.91	0
3	113	1.11	-0.000716383
3	1311	1.21	-0.00136341
3	2509	1.31	-0.00186974
3	3707	1.41	-0.00225157
3	4905	1.51	-0.00252443
3	6103	1.61	-0.00270298
3	7301	1.71	-0.00280098
3	8499	1.81	-0.00283113
3	9697	1.91	-0.00280509
3	10907	2.01	-0.00273342
3	12105	2.11	-0.00262559
3	13303	2.21	-0.00249005
3	14501	2.31	-0.00233419
3	15699	2.41	-0.00216447
3	16897	2.51	-0.00198642
3	18095	2.61	-0.00180472
3	19293	2.71	-0.0016233
3	20491	2.81	-0.00144536
3	21689	2.91	-0.00127346
3	22899	3.01	-0.0011096
3	24097	3.11	-0.000955278
3	25295	3.21	-0.000811546
3	26493	3.31	-0.00067908
3	27691	3.41	-0.000558232
3	28889	3.51	-0.000449082
3	30087	3.61	-0.000351487
3	31285	3.71	-0.00026512
3	32483	3.81	-0.000189514
3	33681	3.91	-0.000124092
3	34891	4.01	-6.81972e-05
3	36089	4.11	-2.11209e-05
3	37287	4.21	1.78769e-05
3	38485	4.31	4.9548e-05
3	39683	4.41	7.46407e-05
3	40881	4.51	9.38867e-05
3	42079	4.61	0.000107991
3	43277	4.71	0.000117625
3	44475	4.81	0.000123418
3	45673	4.91	0.000125957
3	46883	5.01	0.000125781
3	48081	5.11	0.00012338
3	49279	5.21	0.000119198
3	50477	5.31	0.000113629
3	51675	5.41	0.000107022
3	52873	5.51	9.96832e-05
3	54071	5.61	9.18747e-05
3	55269	5.71	8.38211e-05
3	56467	5.81	7.57109e-05
3	57665	5.91	6.76999e-05
3	58875	6.01	5.99137e-05
3	60073	6.11	5.24518e-05
3	61271	6.21	4.53896e-05
3	62469	6.31	3.87821e-05
3	63667	6.41	3.2666e-05
3	64865	6.51	2.70628e-05
3	66063	6.61	2.19809e-05
3	67261	6.71	1.74176e-05
3	68459	6.81	1.33618e-05
3	69657	6.91	9.79494e-06
3	70867	7.01	6.6932e-06
3	72065	7.11	4.02864e-06
3	73263	7.21	1.77051e-06
3	74461	7.31	-1.13691e-07
3	75659	7.41	-1.65736e-06
3	76857	7.51	-2.89397e-06
3	78055	7.61	-3.85652e-06
3	79253	7.71	-4.57698e-06
3	80451	7.81	-5.08591e-06
3	81649	7.91	-5.41219e-06
3	82859	8.01	-5.58279e-06
3	84057	8.11	-5.6226e-06
3	85255	8.21	-5.55442e-06
3	86453	8.31	-5.39886e-06
3	87651	8.41	-5.17441e-06
3	88849	8.51	-4.89748e-06
3	90047	8.61	-4.58246e-06
3	91245	8.71	-4.24184e-06
3	92443	8.81	-3.88634e-06
3	93641	8.91	-3.52499e-06
3	94851	9.01	-3.16534e-06
3	96049	9.11	-2.81353e-06
3	97247	9.21	-2.47446e-06
3	98445	9.31	-2.15192e-06
3	99643	9.41	-1.84873e-06
3	100841	9.51	-1.56685e-06
3	102039	9.61	-1.30751e-06
3	103237	9.71	-1.0713e-06
3	104435	9.81	-8.58321e-07
3	105633	9.91	-6.68206e-07
3	111499	10.01	-5.0026e-07
3	112697	10.11	-3.53514e-07
3	113895	10.21	-2.2679e-07
3	115093	10.31	-1.18765e-07
3	116291	10.41	-2.80163e-08
3	117489	10.51	4.6931e-08
3	118687	10.61	1.07573e-07
3	119885	10.71	1.55391e-07
3	121083	10.81	1.91831e-07
3	122281	10.91	2.18284e-07
3	123491	11.01	2.3607e-07
3	124689	11.11	2.46427e-07
3	125887	11.21	2.50502e-07
3	127085	11.31	2.49353e-07
3	128283	11.41	2.43938e-07
3	129481	11.51	2.3512e-07
3	130679	11.61	2.23669e-07
3	131877	11.71	2.10264e-07
3	133075	11.81	1.95496e-07
3	134273	11.91	1.79874e-07
3	135483	12.01	1.63833e-07
3	136681	12.11	1.47736e-07
3	137879	12.21	1.3188e-07
3	139077	12.31	1.16508e-07
3	140275	12.41	1.01807e-07
3	141473	12.51	8.79222e-08
3	142671	12.61	7.49541e-08
3	143869	12.71	6.29711e-08
3	145067	12.81	5.20114e-08
3	146265	12.91	4.20883e-08
3	147475	13.01	3.3193e-08
3	148673	13.11	2.53003e-08
3	149871	13.21	1.83718e-08
3	151069	13.31	1.23581e-08
3	152267	13.41	7.20348e-09
3	153465	13.51	2.84537e-09
3	154663	13.61	-7.80886e-10
3	155861	13.71	-3.74136e-09
3	157059	13.81	-6.10285e-09
3	158257	13.91	-7.93072e-09
3	159467	14.01	-9.28821e-09
3	160665	14.11	-1.0235e-08
3	161863	14.21	-1.08283e-08
3	163061	14.31	-1.11211e-08
3	164259	14.41	-1.11612e-08
3	165457	14.51	-1.09946e-08
3	166655	14.61	-1.06599e-08
3	167853	14.71	-1.01945e-08
3	169051	14.81	-9.62999e-09
3	170249	14.91	-8.99405e-09
3	171459	15.01	-8.31086e-09
3	172657	15.11	-7.60103e-09
3	173855	15.21	-6.88338e-09
3	175053	15.31	-6.17071e-09
3	176251	15.41	-5.47544e-09
3	177449	15.51	-4.80682e-09
3	178647	15.61	-4.17266e-09
3	179845	15.71	-3.57687e-09
3	181043	15.81	-3.02443e-09
3	182241	15.91	-2.51674e-09
3	183451	16.01	-2.05489e-09
3	184649	16.11	-1.63958e-09
3	185847	16.21	-1.26903e-09
3	187045	16.31	-9.42535e-10
3	188243	16.41	-6.57963e-10
3	189441	16.51	-4.1247e-10
3	190639	16.61	-2.04636e-10
3	191837	16.71	-2.91323e-11
3	193035	16.81	1.14753e-10
3	194233	16.91	2.30926e-10
3	195443	17.01	3.22231e-10
3	196641	17.11	3.91154e-10
3	197839	17.21	4.40892e-10
3	199037	17.31	4.73577e-10
3	200235	17.41	4.92051e-10
3	201433	17.51	4.98446e-10
3	202631	17.61	4.94893e-10
3	203829	17.71	4.82814e-10
3	205027	17.81	4.6434e-10
3	206225	17.91	4.40892e-10
3	207435	18.01	4.13536e-10
3	208633	18.11	3.83693e-10
3	209831	18.21	3.51719e-10
3	211029	18.31	3.19744e-10
3	212227	18.41	2.8777e-10
3	213425	18.51	2.55795e-10
3	214623	18.61	2.25953e-10
3	215821	18.71	1.97531e-10
3	217019	18.81	1.6982e-10
3	218217	18.91	1.44951e-10
3	219427	19.01	1.21503e-10
3	220625	19.11	1.00187e-10
3	221823	19.21	8.10019e-11
3	223021	19.31	6.32383e-11
3	224219	19.41	4.86722e-11
3	225417	19.51	3.44613e-11
3	226615	19.61	2.34479e-11
3	227813	19.71	1.27898e-11
3	229011	19.81	4.9738e-12
3	230209	19.91	-2.13163e-12
3	231419	20.01	-8.17124e-12
3	232617	20.11	-1.1724e-11
3	233815	20.21	-1.52767e-11
3	235013	20.31	-1.88294e-11
3	236211	20.41	-2.02505e-11
3	237409	20.51	-2.02505e-11
3	238607	20.61	-2.02505e-11
3	239805	20.71	-2.02505e-11
3	241003	20.81	-2.02505e-11
3	242201	20.91	-2.02505e-11
3	243411	21.01	-2.02505e-11
3	244609	21.11	-2.02505e-11
3	245807	21.21	-2.02505e-11
3	247005	21.31	-1.88294e-11
3	248203	21.41	-1.7053e-11
3	249401	21.51	-1.52767e-11
3	250599	21.61	-1.38556e-11
3	251797	21.71	-1.24345e-11
3	252995	21.81	-1.13687e-11
3	254193	21.91	-1.03029e-11
3	255403	22.01	-9.23706e-12
3	256601	22.11	-8.52651e-12
3	257799	22.21	-7.4607e-12
3	258997	22.31	-6.75016e-12
3	260195	22.41	-6.03961e-12
3	261393	22.51	-5.68434e-12
3	262591	22.61	-4.9738e-12
3	263789	22.71	-4.61853e-12
3	264987	22.81	-4.26326e-12
3	266185	22.91	-3.90799e-12
3	267395	23.01	-3.55271e-12
3	268593	23.11	-3.19744e-12
3	269791	23.21	-2.84217e-12
3	270989	23.31	-2.4869e-12
3	272187	23.41	-2.13163e-12
3	273385	23.51	-2.13163e-12
3	274583	23.61	-1.77636e-12
3	275781	23.71	-1.77636e-12
3	276979	23.81	-1.42109e-12
3	278177	23.91	-1.42109e-12
3	279387	24.01	-1.06581e-12
3	280585	24.11	-1.06581e-12
3	281783	24.21	-1.06581e-12
3	282981	24.31	-1.06581e-12
3	284179	24.41	-7.10543e-13
3	285377	24.51	-7.10543e-13
3	286575	24.61	-7.10543e-13
3	287773	24.71	-7.10543e-13
3	288971	24.81	-7.10543e-13
3	290169	24.91	-3.55271e-13
3	291379	25.01	-3.55271e-13
3	292577	25.11	-3.55271e-13
3	293775	25.21	-3.55271e-13
3	294973	25.31	-3.55271e-13
3	296171	25.41	-3.55271e-13
3	297369	25.51	-3.55271e-13
3	298567	25.61	-3.55271e-13
3	299765	25.71	-3.55271e-13
3	300963	25.81	-3.55271e-13
3	302161	25.91	0
3	303371	26.01	0
3	304569	26.11	0
3	305767	26.21	0
3	306965	26.31	0
3	308163	26.41	0
3	309361	26.51	0
3	310559	26.61	0
3	311757	26.71	0
3	312955	26.81	0
3	314153	26.91	0
3	315363	27.01	0
3	316561	27.11	0
3	317759	27.21	0
3	318957	27.31	0
3	320155	27.41	0
3	321353	27.51	0
3	322551	27.61	0
3	323749	27.71	0
3	324947	27.81	0
3	326145	27.91	0
3	327355	28.01	0
3	328553	28.11	0
3	329751	28.21	0
3	330949	28.31	0
3	332147	28.41	0
3	333345	28.51	0
3	334543	28.61	0
3	335741	28.71	0
3	336939	28.81	0
3	338137	28.91	0
3	339347	29.01	0
3	340545	29.11	0
3	341743	29.21	0
3	342941	29.31	0
3	344139	29.41	0
3	345337	29.51	0
3	346535	29.61	0
3	347733	29.71	0
3	348931	29.81	0
3	350129	29.91	0
3	351339	30.01	0
3	352537	30.11	0
3	353735	30.21	0
3	354933	30.31	0
3	356131	30.41	0
3	357329	30.51	0
3	358527	30.61	0
3	359725	30.71	0
3	360923	30.81	0
3	362121	30.91	0
3	363331	31.01	0
3	364529	31.11	0
3	365727	31.21	0
3	366925	31.31	0
3	368123	31.41	0
3	369321	31.51	0
3	370519	31.61	0
3	371717	31.71	0
3	372915	31.81	0
3	374113	31.91	0
3	375323	32.01	0
3	376521	32.11	0
3	377719	32.21	0
3	378917	32.31	0
3	380115	32.41	0
3	381313	32.51	0
3	382511	32.61	0
3	383709	32.71	0
3	384907	32.81	0
3	386105	32.91	0
3	387315	33.01	0
3	388513	33.11	0
3	389711	33.21	0
3	390909	33.31	0
3	392107	33.41	0
3	393305	33.51	0
3	394503	33.61	0
3	395701	33.71	0
3	396899	33.81	0
3	398097	33.91	0
3	399307	34.01	0
3	400505	34.11	0
3	401703	34.21	0
3	402901	34.31	0
3	404099	34.41	0
3	405297	34.51	0
3	406495	34.61	0
3	407693	34.71	0
3	408891	34.81	0
3	410089	34.91	0
3	411299	35.01	0
3	412497	35.11	0
3	413695	35.21	0
3	414893	35.31	0
3	416091	35.41	0
3	417289	35.51	0
3	418487	35.61	0
3	419685	35.71	0
3	420883	35.81	0
3	422081	35.91	0
3	423291	36.01	0
3	424489	36.11	0
3	425687	36.21	0
3	426885	36.31	0
3	428083	36.41	0
3	429281	36.51	0
3	430479	36.61	0
3	431677	36.71	0
3	432875	36.81	0
3	434073	36.91	0
3	435283	37.01	0
3	436481	37.11	0
3	437679	37.21	0
3	438877	37.31	0
3	440075	37.41	0
3	441273	37.51	0
3	442471	37.61	0
3	443669	37.71	0
3	444867	37.81	0
3	446065	37.91	0
3	447275	38.01	0
3	448473	38.11	0
3	449671	38.21	0
3	450869	38.31	0
3	452067	38.41	0
3	453265	38.51	0
3	454463	38.61	0
3	455661	38.71	0
3	456859	38.81	0
3	458057	38.91	0
3	459267	39.01	0
3	460465	39.11	0
3	461663	39.21	0
3	462861	39.31	0
3	464059	39.41	0
3	465257	39.51	0
3	466455	39.61	0
3	467653	39.71	0
3	468851	39.81	0
3	470049	39.91	0
3	471259	40.01	0
3	472457	40.11	0
3	473655	40.21	0
3	474853	40.31	0
3	476051	40.41	0
3	477249	40.51	0
3	478447	40.61	0
3	479645	40.71	0
3	480843	40.81	0
3	482041	40.91	0
3	483251	41.01	0
3	484449	41.11	0
3	485647	41.21	0
3	486845	41.31	0
3	488043	41.41	0
3	489241	41.51	0
3	490439	41.61	0
3	491637	41.71	0
3	492835	41.81	0
3	494033	41.91	0
3	495243	42.01	0
3	496441	42.11	0
3	497639	42.21	0
3	498837	42.31	0
3	500035	42.41	0
3	501233	42.51	0
3	502431	42.61	0
3	503629	42.71	0
3	504827	42.81	0
3	506025	42.91	0
3	507235	43.01	0
3	508433	43.11	0
3	509631	43.21	0
3	510829	43.31	0
3	512027	43.41	0
3	513225	43.51	0
3	514423	43.61	0
3	515621	43.71	0
3	516819	43.81	0
3	518017	43.91	0
3	519227	44.01	0
3	520425	44.11	0
3	521623	44.21	0
3	522821	44.31	0
3	524019	44.41	0
3	525217	44.51	0
3	526415	44.61	0
3	527613	44.71	0
3	528811	44.81	0
3	530009	44.91	0
3	531219	45.01	0
3	532417	45.11	0
3	533615	45.21	0
3	534813	45.31	0
3	536011	45.41	0
3	537209	45.51	0
3	538407	45.61	0
3	539605	45.71	0
3	540803	45.81	0
3	542001	45.91	0
3	543211	46.01	0
3	544409	46.11	0
3	545607	46.21	0
3	546805	46.31	0
3	548003	46.41	0
3	549201	46.51	0
3	550399	46.61	0
3	551597	46.71	0
3	552795	46.81	0
3	553993	46.91	0
3	555203	47.01	0
3	556401	47.11	0
3	557599	47.21	0
3	558797	47.31	0
3	559995	47.41	0
3	561193	47.51	0
3	562391	47.61	0
3	563589	47.71	0
3	564787	47.81	0
3	565985	47.91	0
3	567195	48.01	0
3	568393	48.11	0
3	569591	48.21	0
3	570789	48.31	0
3	571987	48.41	0
3	573185	48.51	0
3	574383	48.61	0
3	575581	48.71	0
3	576779	48.81	0
3	577977	48.91	0
3	579187	49.01	0
3	580385	49.11	0
3	581583	49.21	0
3	582781	49.31	0
3	583979	49.41	0
3	585177	49.51	0
3	586375	49.61	0
3	587573	49.71	0
3	588771	49.81	0
3	589969	49.91	0
3	591179	50.01	0
3	592377	50.11	0
3	593575	50.21	0
3	594773	50.31	0
3	595971	50.41	0
3	597169	50.51	0
3	598367	50.61	0
3	599565	50.71	0
3	600763	50.81	0
3	601961	50.91	0
3	603171	51.01	0
3	604369	51.11	0
3	605567	51.21	0
3	606765	51.31	0
3	607963	51.41	0
3	609161	51.51	0
3	610359	51.61	0
3	611557	51.71	0
3	612755	51.81	0
3	613953	51.91	0
3	615163	52.01	0
3	616361	52.11	0
3	617559	52.21	0
3	618757	52.31	0
3	619955	52.41	0
3	621153	52.51	0
3	622351	52.61	0
3	623549	52.71	0
3	624747	52.81	0
3	625945	52.91	0
3	627155	53.01	0
3	628353	53.11	0
3	629551	53.21	0
3	630749	53.31	0
3	631947	53.41	0
3	633145	53.51	0
3	634343	53.61	0
3	635541	53.71	0
3	636739	53.81	0
3	637937	53.91	0
3	639147	54.01	0
3	640345	54.11	0
3	641543	54.21	0
3	642741	54.31	0
3	643939	54.41	0
3	645137	54.51	0
3	646335	54.61	0
3	647533	54.71	0
3	648731	54.81	0
3	649929	54.91	0
3	651139	55.01	0
3	652337	55.11	0
3	653535	55.21	0
3	654733	55.31	0
3	655931	55.41	0
3	657129	55.51	0
3	658327	55.61	0
3	659525	55.71	0
3	660723	55.81	0
3	661921	55.91	0
3	663131	56.01	0
3	664329	56.11	0
3	665527	56.21	0
3	666725	56.31	0
3	667923	56.41	0
3	669121	56.51	0
3	670319	56.61	0
3	671517	56.71	0
3	672715	56.81	0
3	673913	56.91	0
3	675123	57.01	0
3	676321	57.11	0
3	677519	57.21	0
3	678717	57.31	0
3	679915	57.41	0
3	681113	57.51	0
3	682311	57.61	0
3	683509	57.71	0
3	684707	57.81	0
3	685905	57.91	0
3	687115	58.01	0
3	688313	58.11	0
3	689511	58.21	0
3	690709	58.31	0
3	691907	58.41	0
3	693105	58.51	0
3	694303	58.61	0
3	695501	58.71	0
3	696699	58.81	0
3	697897	58.91	0
3	699107	59.01	0
3	700305	59.11	0
3	701503	59.21	0
3	702701	59.31	0
3	703899	59.41	0
3	705097	59.51	0
3	706295	59.61	0
3	707493	59.71	0
3	708691	59.81	0
3	709889	59.91	0
3	711099	60.01	0
3	712297	60.11	0
3	713495	60.21	0
3	714693	60.31	0
3	715891	60.41	0
3	717089	60.51	0
3	718287	60.61	0
3	719485	60.71	0
3	720683	60.81	0
3	721881	60.91	0
3	723091	61.01	0
3	724289	61.11	0
3	725487	61.21	0
3	726685	61.31	0
3	727883	61.41	0
3	729081	61.51	0
3	730279	61.61	0
3	731477	61.71	0
3	732675	61.81	0
3	733873	61.91	0
3	735083	62.01	0
3	736281	62.11	0
3	737479	62.21	0
3	738677	62.31	0
3	739875	62.41	0
3	741073	62.51	0
3	742271	62.61	0
3	743469	62.71	0
3	744667	62.81	0
3	745865	62.91	0
3	747075	63.01	0
3	748273	63.11	0
3	749471	63.21	0
3	750669	63.31	0
3	751867	63.41	0
3	753065	63.51	0
3	754263	63.61	0
3	755461	63.71	0
3	756659	63.81	0
3	757857	63.91	0
3	759067	64.01	0
3	760265	64.11	0
3	761463	64.21	0
3	762661	64.31	0
3	763859	64.41	0
3	765057	64.51	0
3	766255	64.61	0
3	767453	64.71	0
3	768651	64.81	0
3	769849	64.91	0
3	771059	65.01	0
3	772257	65.11	0
3	773455	65.21	0
3	774653	65.31	0
3	775851	65.41	0
3	777049	65.51	0
3	778247	65.61	0
3	779445	65.71	0
3	780643	65.81	0
3	781841	65.91	0
3	783051	66.01	0
3	784249	66.11	0
3	785447	66.21	0
3	786645	66.31	0
3	787843	66.41	0
3	789041	66.51	0
3	790239	66.61	0
3	791437	66.71	0
3	792635	66.81	0
3	793833	66.91	0
3	795043	67.01	0
3	796241	67.11	0
3	797439	67.21	0
3	798637	67.31	0
3	799835	67.41	0
3	801033	67.51	0
3	802231	67.61	0
3	803429	67.71	0
3	804627	67.81	0
3	805825	67.91	0
3	807035	68.01	0
3	808233	68.11	0
3	809431	68.21	0
3	810629	68.31	0
3	811827	68.41	0
3	813025	68.51	0
3	814223	68.61	0
3	815421	68.71	0
3	816619	68.81	0
3	817817	68.91	0
3	819027	69.01	0
3	820225	69.11	0
3	821423	69.21	0
3	822621	69.31	0
3	823819	69.41	0
3	825017	69.51	0
3	826215	69.61	0
3	827413	69.71	0
3	828611	69.81	0
3	829809	69.91	0
3	831019	70.01	0
3	832217	70.11	0
3	833415	70.21	0
3	834613	70.31	0
3	835811	70.41	0
3	837009	70.51	0
3	838207	70.61	0
3	839405	70.71	0
3	840603	70.81	0
3	841801	70.91	0
3	843011	71.01	0
3	844209	71.11	0
3	845407	71.21	0
3	846605	71.31	0
3	847803	71.41	0
3	849001	71.51	0
3	850199	71.61	0
3	851397	71.71	0
3	852595	71.81	0
3	853793	71.91	0
3	855003	72.01	0
3	856201	72.11	0
3	857399	72.21	0
3	858597	72.31	0
3	859795	72.41	0
3	860993	72.51	0
3	862191	72.61	0
3	863389	72.71	0
[...]
164	1094740	92	6
164	1106732	93	6
164	1118724	94	6
164	1130716	95	6
164	1142708	96	6
164	1154700	97	6
164	1166692	98	6
164	1178684	99	6
164	1190676	100	6
165	10804	2	0.033393
165	22796	3	0.03745
165	34788	4	0.03745
165	46780	5	0.03745
165	58772	6	0.03745
165	70764	7	0.03745
165	82756	8	0.03745
165	94748	9	0.03745
165	106741	10	0.03745
165	123388	11	0.040795000667
165	135380	12	0.03745
165	147372	13	0.03745
165	159364	14	0.03745
165	171356	15	0.03745
165	183348	16	0.03745
165	195340	17	0.03745
165	207332	18	0.03745
165	219324	19	0.03745
165	231316	20	0.03745
165	243308	21	0.03745
165	255300	22	0.03745
165	267292	23	0.03745
165	279284	24	0.03745
165	291276	25	0.03745
165	303268	26	0.03745
165	315260	27	0.03745
165	327252	28	0.03745
165	339244	29	0.03745
165	351236	30	0.03745
165	363228	31	0.03745
165	375220	32	0.03745
165	387212	33	0.03745
165	399204	34	0.03745
165	411196	35	0.03745
165	423188	36	0.03745
165	435180	37	0.03745
165	447172	38	0.03745
165	459164	39	0.03745
165	471156	40	0.03745
165	483148	41	0.03745
165	495140	42	0.03745
165	507132	43	0.03745
165	519124	44	0.03745
165	531116	45	0.03745
165	543108	46	0.03745
165	555100	47	0.03745
165	567092	48	0.03745
165	579084	49	0.03745
165	591076	50	0.03745
165	603068	51	0.03745
165	615060	52	0.03745
165	627052	53	0.03745
165	639044	54	0.03745
165	651036	55	0.03745
165	663028	56	0.03745
165	675020	57	0.03745
165	687012	58	0.03745
165	699004	59	0.03745
165	710996	60	0.03745
165	722988	61	0.03745
165	734980	62	0.03745
165	746972	63	0.03745
165	758964	64	0.03745
165	770956	65	0.03745
165	782948	66	0.03745
165	794940	67	0.03745
165	806932	68	0.03745
165	818924	69	0.03745
165	830916	70	0.03745
165	842908	71	0.03745
165	854900	72	0.03745
165	866892	73	0.03745
165	878884	74	0.03745
165	890876	75	0.03745
165	902868	76	0.03745
165	914860	77	0.03745
165	926852	78	0.03745
165	938844	79	0.03745
165	950836	80	0.03745
165	962828	81	0.03745
165	974820	82	0.03745
165	986812	83	0.03745
165	998804	84	0.03745
165	1010796	85	0.03745
165	1022788	86	0.03745
165	1034780	87	0.03745
165	1046772	88	0.03745
165	1058764	89	0.03745
165	1070756	90	0.03745
165	1082748	91	0.03745
165	1094740	92	0.03745
165	1106732	93	0.03745
165	1118724	94	0.03745
165	1130716	95	0.03745
165	1142708	96	0.03745
165	1154700	97	0.03745
165	1166692	98	0.03745
165	1178684	99	0.03745
165	1190676	100	0.03745
166	10804	2	0
166	22796	3	0
166	34788	4	0
166	46780	5	0
166	58772	6	0
166	70764	7	0
166	82756	8	0
166	94748	9	0
166	106741	10	0
166	123388	11	0
166	135380	12	0
166	147372	13	0
166	159364	14	0
166	171356	15	0
166	183348	16	0
166	195340	17	0
166	207332	18	0
166	219324	19	0
166	231316	20	0
166	243308	21	0
166	255300	22	0
166	267292	23	0
166	279284	24	0
166	291276	25	0
166	303268	26	0
166	315260	27	0
166	327252	28	0
166	339244	29	0
166	351236	30	0
166	363228	31	0
166	375220	32	0
166	387212	33	0
166	399204	34	0
166	411196	35	0
166	423188	36	0
166	435180	37	0
166	447172	38	0
166	459164	39	0
166	471156	40	0
166	483148	41	0
166	495140	42	0
166	507132	43	0
166	519124	44	0
166	531116	45	0
166	543108	46	0
166	555100	47	0
166	567092	48	0
166	579084	49	0
166	591076	50	0
166	603068	51	0
166	615060	52	0
166	627052	53	0
166	639044	54	0
166	651036	55	0
166	663028	56	0
166	675020	57	0
166	687012	58	0
166	699004	59	0
166	710996	60	0
166	722988	61	0
166	734980	62	0
166	746972	63	0
166	758964	64	0
166	770956	65	0
166	782948	66	0
166	794940	67	0
166	806932	68	0
166	818924	69	0
166	830916	70	0
166	842908	71	0
166	854900	72	0
166	866892	73	0
166	878884	74	0
166	890876	75	0
166	902868	76	0
166	914860	77	0
166	926852	78	0
166	938844	79	0
166	950836	80	0
166	962828	81	0
166	974820	82	0
166	986812	83	0
166	998804	84	0
166	1010796	85	0
166	1022788	86	0
166	1034780	87	0
166	1046772	88	0
166	1058764	89	0
166	1070756	90	0
166	1082748	91	0
166	1094740	92	0
166	1106732	93	0
166	1118724	94	0
166	1130716	95	0
166	1142708	96	0
166	1154700	97	0
166	1166692	98	0
166	1178684	99	0
166	1190676	100	0
167	10805	2	7
167	22797	3	7
167	34789	4	7
167	46781	5	7
167	58773	6	7
167	70765	7	7
167	82757	8	7
167	94749	9	7
167	106742	10	7
167	123389	11	7
167	135381	12	7
167	147373	13	7
167	159365	14	7
167	171357	15	7
167	183349	16	7
167	195341	17	7
167	207333	18	7
167	219325	19	7
167	231317	20	7
167	243309	21	7
167	255301	22	7
167	267293	23	7
167	279285	24	7
167	291277	25	7
167	303269	26	7
167	315261	27	7
167	327253	28	7
167	339245	29	7
167	351237	30	7
167	363229	31	7
167	375221	32	7
167	387213	33	7
167	399205	34	7
167	411197	35	7
167	423189	36	7
167	435181	37	7
167	447173	38	7
167	459165	39	7
167	471157	40	7
167	483149	41	7
167	495141	42	7
167	507133	43	7
167	519125	44	7
167	531117	45	7
167	543109	46	7
167	555101	47	7
167	567093	48	7
167	579085	49	7
167	591077	50	7
167	603069	51	7
167	615061	52	7
167	627053	53	7
167	639045	54	7
167	651037	55	7
167	663029	56	7
167	675021	57	7
167	687013	58	7
167	699005	59	7
167	710997	60	7
167	722989	61	7
167	734981	62	7
167	746973	63	7
167	758965	64	7
167	770957	65	7
167	782949	66	7
167	794941	67	7
167	806933	68	7
167	818925	69	7
167	830917	70	7
167	842909	71	7
167	854901	72	7
167	866893	73	7
167	878885	74	7
167	890877	75	7
167	902869	76	7
167	914861	77	7
167	926853	78	7
167	938845	79	7
167	950837	80	7
167	962829	81	7
167	974821	82	7
167	986813	83	7
167	998805	84	7
167	1010797	85	7
167	1022789	86	7
167	1034781	87	7
167	1046773	88	7
167	1058765	89	7
167	1070757	90	7
167	1082749	91	7
167	1094741	92	7
167	1106733	93	7
167	1118725	94	7
167	1130717	95	7
167	1142709	96	7
167	1154701	97	7
167	1166693	98	7
167	1178685	99	7
167	1190677	100	7
168	10805	2	0.033393
168	22797	3	0.03745
168	34789	4	0.03745
168	46781	5	0.03745
168	58773	6	0.03745
168	70765	7	0.03745
168	82757	8	0.03745
168	94749	9	0.03745
168	106742	10	0.03745
168	123389	11	0.040627160781
168	135381	12	0.03745
168	147373	13	0.03745
168	159365	14	0.03745
168	171357	15	0.03745
168	183349	16	0.03745
168	195341	17	0.03745
168	207333	18	0.03745
168	219325	19	0.03745
168	231317	20	0.03745
168	243309	21	0.03745
168	255301	22	0.03745
168	267293	23	0.03745
168	279285	24	0.03745
168	291277	25	0.03745
168	303269	26	0.03745
168	315261	27	0.03745
168	327253	28	0.03745
168	339245	29	0.03745
168	351237	30	0.03745
168	363229	31	0.03745
168	375221	32	0.03745
168	387213	33	0.03745
168	399205	34	0.03745
168	411197	35	0.03745
168	423189	36	0.03745
168	435181	37	0.03745
168	447173	38	0.03745
168	459165	39	0.03745
168	471157	40	0.03745
168	483149	41	0.03745
168	495141	42	0.03745
168	507133	43	0.03745
168	519125	44	0.03745
168	531117	45	0.03745
168	543109	46	0.03745
168	555101	47	0.03745
168	567093	48	0.03745
168	579085	49	0.03745
168	591077	50	0.03745
168	603069	51	0.03745
168	615061	52	0.03745
168	627053	53	0.03745
168	639045	54	0.03745
168	651037	55	0.03745
168	663029	56	0.03745
168	675021	57	0.03745
168	687013	58	0.03745
168	699005	59	0.03745
168	710997	60	0.03745
168	722989	61	0.03745
168	734981	62	0.03745
168	746973	63	0.03745
168	758965	64	0.03745
168	770957	65	0.03745
168	782949	66	0.03745
168	794941	67	0.03745
168	806933	68	0.03745
168	818925	69	0.03745
168	830917	70	0.03745
168	842909	71	0.03745
168	854901	72	0.03745
168	866893	73	0.03745
168	878885	74	0.03745
168	890877	75	0.03745
168	902869	76	0.03745
168	914861	77	0.03745
168	926853	78	0.03745
168	938845	79	0.03745
168	950837	80	0.03745
168	962829	81	0.03745
168	974821	82	0.03745
168	986813	83	0.03745
168	998805	84	0.03745
168	1010797	85	0.03745
168	1022789	86	0.03745
168	1034781	87	0.03745
168	1046773	88	0.03745
168	1058765	89	0.03745
168	1070757	90	0.03745
168	1082749	91	0.03745
168	1094741	92	0.03745
168	1106733	93	0.03745
168	1118725	94	0.03745
168	1130717	95	0.03745
168	1142709	96	0.03745
168	1154701	97	0.03745
168	1166693	98	0.03745
168	1178685	99	0.03745
168	1190677	100	0.03745
169	10805	2	0
169	22797	3	0
169	34789	4	0
169	46781	5	0
169	58773	6	0
169	70765	7	0
169	82757	8	0
169	94749	9	0
169	106742	10	0
169	123389	11	0
169	135381	12	0
169	147373	13	0
169	159365	14	0
169	171357	15	0
169	183349	16	0
169	195341	17	0
169	207333	18	0
169	219325	19	0
169	231317	20	0
169	243309	21	0
169	255301	22	0
169	267293	23	0
169	279285	24	0
169	291277	25	0
169	303269	26	0
169	315261	27	0
169	327253	28	0
169	339245	29	0
169	351237	30	0
169	363229	31	0
169	375221	32	0
169	387213	33	0
169	399205	34	0
169	411197	35	0
169	423189	36	0
169	435181	37	0
169	447173	38	0
169	459165	39	0
169	471157	40	0
169	483149	41	0
169	495141	42	0
169	507133	43	0
169	519125	44	0
169	531117	45	0
169	543109	46	0
169	555101	47	0
169	567093	48	0
169	579085	49	0
169	591077	50	0
169	603069	51	0
169	615061	52	0
169	627053	53	0
169	639045	54	0
169	651037	55	0
169	663029	56	0
169	675021	57	0
169	687013	58	0
169	699005	59	0
169	710997	60	0
169	722989	61	0
169	734981	62	0
169	746973	63	0
169	758965	64	0
169	770957	65	0
169	782949	66	0
169	794941	67	0
169	806933	68	0
169	818925	69	0
169	830917	70	0
169	842909	71	0
169	854901	72	0
169	866893	73	0
169	878885	74	0
169	890877	75	0
169	902869	76	0
169	914861	77	0
169	926853	78	0
169	938845	79	0
169	950837	80	0
169	962829	81	0
169	974821	82	0
169	986813	83	0
169	998805	84	0
169	1010797	85	0
169	1022789	86	0
169	1034781	87	0
169	1046773	88	0
169	1058765	89	0
169	1070757	90	0
169	1082749	91	0
169	1094741	92	0
169	1106733	93	0
169	1118725	94	0
169	1130717	95	0
169	1142709	96	0
169	1154701	97	0
169	1166693	98	0
169	1178685	99	0
169	1190677	100	0
170	10806	2	8
170	22798	3	8
170	34790	4	8
170	46782	5	8
170	58774	6	8
170	70766	7	8
170	82758	8	8
170	94750	9	8
170	106743	10	8
170	123390	11	8
170	135382	12	8
170	147374	13	8
170	159366	14	8
170	171358	15	8
170	183350	16	8
170	195342	17	8
170	207334	18	8
170	219326	19	8
170	231318	20	8
170	243310	21	8
170	255302	22	8
170	267294	23	8
170	279286	24	8
170	291278	25	8
170	303270	26	8
170	315262	27	8
170	327254	28	8
170	339246	29	8
170	351238	30	8
170	363230	31	8
170	375222	32	8
170	387214	33	8
170	399206	34	8
170	411198	35	8
170	423190	36	8
170	435182	37	8
170	447174	38	8
170	459166	39	8
170	471158	40	8
170	483150	41	8
170	495142	42	8
170	507134	43	8
170	519126	44	8
170	531118	45	8
170	543110	46	8
170	555102	47	8
170	567094	48	8
170	579086	49	8
170	591078	50	8
170	603070	51	8
170	615062	52	8
170	627054	53	8
170	639046	54	8
170	651038	55	8
170	663030	56	8
170	675022	57	8
170	687014	58	8
170	699006	59	8
170	710998	60	8
170	722990	61	8
170	734982	62	8
170	746974	63	8
170	758966	64	8
170	770958	65	8
170	782950	66	8
170	794942	67	8
170	806934	68	8
170	818926	69	8
170	830918	70	8
170	842910	71	8
170	854902	72	8
170	866894	73	8
170	878886	74	8
170	890878	75	8
170	902870	76	8
170	914862	77	8
170	926854	78	8
170	938846	79	8
170	950838	80	8
170	962830	81	8
170	974822	82	8
170	986814	83	8
170	998806	84	8
170	1010798	85	8
170	1022790	86	8
170	1034782	87	8
170	1046774	88	8
170	1058766	89	8
170	1070758	90	8
170	1082750	91	8
170	1094742	92	8
170	1106734	93	8
170	1118726	94	8
170	1130718	95	8
170	1142710	96	8
170	1154702	97	8
170	1166694	98	8
170	1178686	99	8
170	1190678	100	8
171	10806	2	0.033393
171	22798	3	0.03745
171	34790	4	0.03745
171	46782	5	0.03745
171	58774	6	0.03745
171	70766	7	0.03745
171	82758	8	0.03745
171	94750	9	0.03745
171	106743	10	0.03745
171	123390	11	0.040735040697
171	135382	12	0.03745
171	147374	13	0.03745
171	159366	14	0.03745
171	171358	15	0.03745
171	183350	16	0.03745
171	195342	17	0.03745
171	207334	18	0.03745
171	219326	19	0.03745
171	231318	20	0.03745
171	243310	21	0.03745
171	255302	22	0.03745
171	267294	23	0.03745
171	279286	24	0.03745
171	291278	25	0.03745
171	303270	26	0.03745
171	315262	27	0.03745
171	327254	28	0.03745
171	339246	29	0.03745
171	351238	30	0.03745
171	363230	31	0.03745
171	375222	32	0.03745
171	387214	33	0.03745
171	399206	34	0.03745
171	411198	35	0.03745
171	423190	36	0.03745
171	435182	37	0.03745
171	447174	38	0.03745
171	459166	39	0.03745
171	471158	40	0.03745
171	483150	41	0.03745
171	495142	42	0.03745
171	507134	43	0.03745
171	519126	44	0.03745
171	531118	45	0.03745
171	543110	46	0.03745
171	555102	47	0.03745
171	567094	48	0.03745
171	579086	49	0.03745
171	591078	50	0.03745
171	603070	51	0.03745
171	615062	52	0.03745
171	627054	53	0.03745
171	639046	54	0.03745
171	651038	55	0.03745
171	663030	56	0.03745
171	675022	57	0.03745
171	687014	58	0.03745
171	699006	59	0.03745
171	710998	60	0.03745
171	722990	61	0.03745
171	734982	62	0.03745
171	746974	63	0.03745
171	758966	64	0.03745
171	770958	65	0.03745
171	782950	66	0.03745
171	794942	67	0.03745
171	806934	68	0.03745
171	818926	69	0.03745
171	830918	70	0.03745
171	842910	71	0.03745
171	854902	72	0.03745
171	866894	73	0.03745
171	878886	74	0.03745
171	890878	75	0.03745
171	902870	76	0.03745
171	914862	77	0.03745
171	926854	78	0.03745
171	938846	79	0.03745
171	950838	80	0.03745
171	962830	81	0.03745
171	974822	82	0.03745
171	986814	83	0.03745
171	998806	84	0.03745
171	1010798	85	0.03745
171	1022790	86	0.03745
171	1034782	87	0.03745
171	1046774	88	0.03745
171	1058766	89	0.03745
171	1070758	90	0.03745
171	1082750	91	0.03745
171	1094742	92	0.03745
171	1106734	93	0.03745
171	1118726	94	0.03745
171	1130718	95	0.03745
171	1142710	96	0.03745
171	1154702	97	0.03745
171	1166694	98	0.03745
171	1178686	99	0.03745
171	1190678	100	0.03745
172	10806	2	0
172	22798	3	0
172	34790	4	0
172	46782	5	0
172	58774	6	0
172	70766	7	0
172	82758	8	0
172	94750	9	0
172	106743	10	0
172	123390	11	0
172	135382	12	0
172	147374	13	0
172	159366	14	0
172	171358	15	0
172	183350	16	0
172	195342	17	0
172	207334	18	0
172	219326	19	0
172	231318	20	0
172	243310	21	0
172	255302	22	0
172	267294	23	0
172	279286	24	0
172	291278	25	0
172	303270	26	0
172	315262	27	0
172	327254	28	0
172	339246	29	0
172	351238	30	0
172	363230	31	0
172	375222	32	0
172	387214	33	0
172	399206	34	0
172	411198	35	0
172	423190	36	0
172	435182	37	0
172	447174	38	0
172	459166	39	0
172	471158	40	0
172	483150	41	0
172	495142	42	0
172	507134	43	0
172	519126	44	0
172	531118	45	0
172	543110	46	0
172	555102	47	0
172	567094	48	0
172	579086	49	0
172	591078	50	0
172	603070	51	0
172	615062	52	0
172	627054	53	0
172	639046	54	0
172	651038	55	0
172	663030	56	0
172	675022	57	0
172	687014	58	0
172	699006	59	0
172	710998	60	0
172	722990	61	0
172	734982	62	0
172	746974	63	0
172	758966	64	0
172	770958	65	0
172	782950	66	0
172	794942	67	0
172	806934	68	0
172	818926	69	0
172	830918	70	0
172	842910	71	0
172	854902	72	0
172	866894	73	0
172	878886	74	0
172	890878	75	0
172	902870	76	0
172	914862	77	0
172	926854	78	0
172	938846	79	0
172	950838	80	0
172	962830	81	0
172	974822	82	0
172	986814	83	0
172	998806	84	0
172	1010798	85	0
172	1022790	86	0
172	1034782	87	0
172	1046774	88	0
172	1058766	89	0
172	1070758	90	0
172	1082750	91	0
172	1094742	92	0
172	1106734	93	0
172	1118726	94	0
172	1130718	95	0
172	1142710	96	0
172	1154702	97	0
172	1166694	98	0
172	1178686	99	0
172	1190678	100	0
173	10807	2	9
173	22799	3	9
173	34791	4	9
173	46783	5	9
173	58775	6	9
173	70767	7	9
173	82759	8	9
173	94751	9	9
173	106744	10	9
173	123391	11	9
173	135383	12	9
173	147375	13	9
173	159367	14	9
173	171359	15	9
173	183351	16	9
173	195343	17	9
173	207335	18	9
173	219327	19	9
173	231319	20	9
173	243311	21	9
173	255303	22	9
173	267295	23	9
173	279287	24	9
173	291279	25	9
173	303271	26	9
173	315263	27	9
173	327255	28	9
173	339247	29	9
173	351239	30	9
173	363231	31	9
173	375223	32	9
173	387215	33	9
173	399207	34	9
173	411199	35	9
173	423191	36	9
173	435183	37	9
173	447175	38	9
173	459167	39	9
173	471159	40	9
173	483151	41	9
173	495143	42	9
173	507135	43	9
173	519127	44	9
173	531119	45	9
173	543111	46	9
173	555103	47	9
173	567095	48	9
173	579087	49	9
173	591079	50	9
173	603071	51	9
173	615063	52	9
173	627055	53	9
173	639047	54	9
173	651039	55	9
173	663031	56	9
173	675023	57	9
173	687015	58	9
173	699007	59	9
173	710999	60	9
173	722991	61	9
173	734983	62	9
173	746975	63	9
173	758967	64	9
173	770959	65	9
173	782951	66	9
173	794943	67	9
173	806935	68	9
173	818927	69	9
173	830919	70	9
173	842911	71	9
173	854903	72	9
173	866895	73	9
173	878887	74	9
173	890879	75	9
173	902871	76	9
173	914863	77	9
173	926855	78	9
173	938847	79	9
173	950839	80	9
173	962831	81	9
173	974823	82	9
173	986815	83	9
173	998807	84	9
173	1010799	85	9
173	1022791	86	9
173	1034783	87	9
173	1046775	88	9
173	1058767	89	9
173	1070759	90	9
173	1082751	91	9
173	1094743	92	9
173	1106735	93	9
173	1118727	94	9
173	1130719	95	9
173	1142711	96	9
173	1154703	97	9
173	1166695	98	9
173	1178687	99	9
173	1190679	100	9
174	10807	2	0.033393
174	22799	3	0.03745
174	34791	4	0.03745
174	46783	5	0.03745
174	58775	6	0.03745
174	70767	7	0.03745
174	82759	8	0.03745
174	94751	9	0.03745
174	106744	10	0.03745
174	123391	11	0.040640040697
174	135383	12	0.03745
174	147375	13	0.03745
174	159367	14	0.03745
174	171359	15	0.03745
174	183351	16	0.03745
174	195343	17	0.03745
174	207335	18	0.03745
174	219327	19	0.03745
174	231319	20	0.03745
174	243311	21	0.03745
174	255303	22	0.03745
174	267295	23	0.03745
174	279287	24	0.03745
174	291279	25	0.03745
174	303271	26	0.03745
174	315263	27	0.03745
174	327255	28	0.03745
174	339247	29	0.03745
174	351239	30	0.03745
174	363231	31	0.03745
174	375223	32	0.03745
174	387215	33	0.03745
174	399207	34	0.03745
174	411199	35	0.03745
174	423191	36	0.03745
174	435183	37	0.03745
174	447175	38	0.03745
174	459167	39	0.03745
174	471159	40	0.03745
174	483151	41	0.03745
174	495143	42	0.03745
174	507135	43	0.03745
174	519127	44	0.03745
174	531119	45	0.03745
174	543111	46	0.03745
174	555103	47	0.03745
174	567095	48	0.03745
174	579087	49	0.03745
174	591079	50	0.03745
174	603071	51	0.03745
174	615063	52	0.03745
174	627055	53	0.03745
174	639047	54	0.03745
174	651039	55	0.03745
174	663031	56	0.03745
174	675023	57	0.03745
174	687015	58	0.03745
174	699007	59	0.03745
174	710999	60	0.03745
174	722991	61	0.03745
174	734983	62	0.03745
174	746975	63	0.03745
174	758967	64	0.03745
174	770959	65	0.03745
174	782951	66	0.03745
174	794943	67	0.03745
174	806935	68	0.03745
174	818927	69	0.03745
174	830919	70	0.03745
174	842911	71	0.03745
174	854903	72	0.03745
174	866895	73	0.03745
174	878887	74	0.03745
174	890879	75	0.03745
174	902871	76	0.03745
174	914863	77	0.03745
174	926855	78	0.03745
174	938847	79	0.03745
174	950839	80	0.03745
174	962831	81	0.03745
174	974823	82	0.03745
174	986815	83	0.03745
174	998807	84	0.03745
174	1010799	85	0.03745
174	1022791	86	0.03745
174	1034783	87	0.03745
174	1046775	88	0.03745
174	1058767	89	0.03745
174	1070759	90	0.03745
174	1082751	91	0.03745
174	1094743	92	0.03745
174	1106735	93	0.03745
174	1118727	94	0.03745
174	1130719	95	0.03745
174	1142711	96	0.03745
174	1154703	97	0.03745
174	1166695	98	0.03745
174	1178687	99	0.03745
174	1190679	100	0.03745
175	10807	2	0
175	22799	3	0
175	34791	4	0
175	46783	5	0
175	58775	6	0
175	70767	7	0
175	82759	8	0
175	94751	9	0
175	106744	10	0
175	123391	11	0
175	135383	12	0
175	147375	13	0
175	159367	14	0
175	171359	15	0
175	183351	16	0
175	195343	17	0
175	207335	18	0
175	219327	19	0
175	231319	20	0
175	243311	21	0
175	255303	22	0
175	267295	23	0
175	279287	24	0
175	291279	25	0
175	303271	26	0
175	315263	27	0
175	327255	28	0
175	339247	29	0
175	351239	30	0
175	363231	31	0
175	375223	32	0
175	387215	33	0
175	399207	34	0
175	411199	35	0
175	423191	36	0
175	435183	37	0
175	447175	38	0
175	459167	39	0
175	471159	40	0
175	483151	41	0
175	495143	42	0
175	507135	43	0
175	519127	44	0
175	531119	45	0
175	543111	46	0
175	555103	47	0
175	567095	48	0
175	579087	49	0
175	591079	50	0
175	603071	51	0
175	615063	52	0
175	627055	53	0
175	639047	54	0
175	651039	55	0
175	663031	56	0
175	675023	57	0
175	687015	58	0
175	699007	59	0
175	710999	60	0
175	722991	61	0
175	734983	62	0
175	746975	63	0
175	758967	64	0
175	770959	65	0
175	782951	66	0
175	794943	67	0
175	806935	68	0
175	818927	69	0
175	830919	70	0
175	842911	71	0
175	854903	72	0
175	866895	73	0
175	878887	74	0
175	890879	75	0
175	902871	76	0
175	914863	77	0
175	926855	78	0
175	938847	79	0
175	950839	80	0
175	962831	81	0
175	974823	82	0
175	986815	83	0
175	998807	84	0
175	1010799	85	0
175	1022791	86	0
175	1034783	87	0
175	1046775	88	0
175	1058767	89	0
175	1070759	90	0
175	1082751	91	0
175	1094743	92	0
175	1106735	93	0
175	1118727	94	0
175	1130719	95	0
175	1142711	96	0
175	1154703	97	0
175	1166695	98	0
175	1178687	99	0
175	1190679	100	0

