version 3
run BreakRanksNoGui-2008-20240710-16:44:35-266428
attr configname BreakRanksNoGui
attr datetime 20240710-16:44:35
attr datetimef 20240710-164435
attr experiment BreakRanksNoGui
attr inifile omnetpp.ini
attr iterationvars "$nCars=12, $platoonSize=12, $nLanes=1, $ploegH=0.5, $controller=1, $headway=0.1, $leaderHeadway=1.2, $leaderSpeed=110, $breakRanksSafetyDistance=2, $minSpeed=100, $maxSpeed=120, $beaconInterval=0.1, $priority=4, $packetSize=200, $sController=\"CACC\", $0=2, $1=0"
attr iterationvarsd nCars=12/platoonSize=12/nLanes=1/ploegH=0.5/controller=1/headway=0.1/leaderHeadway=1.2/leaderSpeed=110/breakRanksSafetyDistance=2/minSpeed=100/maxSpeed=120/beaconInterval=0.1/priority=4/packetSize=200/sController=CACC/2/0
attr iterationvarsf nCars=12,platoonSize=12,nLanes=1,ploegH=0.5,controller=1,headway=0.1,leaderHeadway=1.2,leaderSpeed=110,breakRanksSafetyDistance=2,minSpeed=100,maxSpeed=120,beaconInterval=0.1,priority=4,packetSize=200,sController=CACC,2,0-
attr measurement "$nCars=12, $platoonSize=12, $nLanes=1, $ploegH=0.5, $controller=1, $headway=0.1, $leaderHeadway=1.2, $leaderSpeed=110, $breakRanksSafetyDistance=2, $minSpeed=100, $maxSpeed=120, $beaconInterval=0.1, $priority=4, $packetSize=200, $sController=\"CACC\", $0=2, $1=0"
attr network Highway
attr processid 266428
attr repetition 8
attr replication #8
attr resultdir results
attr runnumber 2008
attr seedset 8
itervar beaconInterval 0.1
itervar breakRanksSafetyDistance 2
itervar controller 1
itervar headway 0.1
itervar leaderHeadway 1.2
itervar leaderSpeed 110
itervar maxSpeed 120
itervar minSpeed 100
itervar nCars 12
itervar nLanes 1
itervar packetSize 200
itervar platoonSize 12
itervar ploegH 0.5
itervar priority 4
itervar sController "\"CACC\""
config image-path ../../../veins/images
config repeat 10
config extends BreakRanks
config *.manager.command "\"sumo\""
config *.manager.ignoreGuiCommands true
config output-vector-file "results/BreakRanks_1_0.1_110_2_12 /result_8.vec"
config output-scalar-file "results/BreakRanks_1_0.1_110_2_12 /result_8.sca"
config extends Platooning
config *.node[*].scenario_type "\"BreakRanksScenario\""
config *.manager.command "\"sumo-gui\""
config *.node[*].scenario_type "\"SimpleScenario\""
config cmdenv-express-mode true
config cmdenv-autoflush true
config cmdenv-status-frequency 15s
config num-rngs 6
config network Highway
config debug-on-errors true
config print-undisposed true
config *.playgroundSizeX 65000m
config *.playgroundSizeY 25000m
config *.playgroundSizeZ 50m
config sim-time-limit "100 s"
config *.annotations.draw false
config *.obstacles.debug false
config *.world.useTorus false
config *.world.use2D false
config *.manager.updateInterval 0.01s
config *.manager.host "\"localhost\""
config *.manager.moduleType "\"org.car2x.plexe.PlatoonCar\""
config *.manager.moduleName "\"node\""
config *.manager.moduleDisplayString "\"\""
config *.manager.autoShutdown true
config *.manager.margin 25
config *.connectionManager.sendDirect true
config *.connectionManager.maxInterfDist 2600m
config *.connectionManager.drawMaxIntfDist false
config *.**.nic.mac1609_4.useServiceChannel false
config *.**.nic.mac1609_4.txPower 100mW
config *.**.nic.mac1609_4.bitrate 6Mbps
config *.**.nic.mac1609_4.useAcks true
config *.**.nic.mac1609_4.ackErrorRate 0.0
config *.**.nic.mac1609_4.frameErrorRate 0.0
config *.**.nic.phy80211p.minPowerLevel -94dBm
config *.**.nic.phy80211p.maxTXPower 100mW
config *.**.nic.phy80211p.useNoiseFloor true
config *.**.nic.phy80211p.noiseFloor -95dBm
config *.**.nic.phy80211p.decider "xmldoc(\"config.xml\")"
config *.**.nic.phy80211p.analogueModels "xmldoc(\"config.xml\")"
config *.**.nic.phy80211p.usePropagationDelay true
config *.node[*].mobility.x 0
config *.node[*].mobility.y 0
config *.node[*].mobility.z 1.895
config seed-set 8
config **.seed 8
config *.node[*].prot.rng-0 2
config *.node[*].appl.rng-0 3
config *.node[*].scenario.rng-0 4
config **.traffic.rng-0 5
config *.manager.configFile "\"./sumocfg/freeway.sumo.cfg\""
config *.manager.launchConfig "xmldoc(\"./sumocfg/freeway.launchd.xml\")"
config **.numberOfCars 12
config **.numberOfCarsPerPlatoon 12
config **.numberOfLanes 1
config *.node[*].helper_type "\"PositionHelper\""
config *.node[*].scenario.caccC1 0.5
config *.node[*].scenario.caccXi 1
config *.node[*].scenario.caccOmegaN "0.2 Hz"
config *.node[*].scenario.caccSpacing "2 m"
config *.node[*].scenario.engineTau "0.5 s"
config *.node[*].scenario.ploegH 0.5s
config *.node[*].scenario.ploegKp 0.2
config *.node[*].scenario.ploegKd 0.7
config *.node[*].scenario.useRealisticEngine false
config *.node[*].scenario.useControllerAcceleration true
config *.node[*].scenario.nLanes 1
config **.numericController 1
config **.headway 0.1s
config *.node[*].scenario.accHeadway 0.1s
config *.node[*].scenario.leaderHeadway 1.2s
config *.node[*].scenario.leaderSpeed 110kmph
config *.node[*].appl_type "\"SimplePlatooningApp\""
config *.node[*].appl.*.scalar-recording true
config *.node[*].appl.*.vector-recording true
config *.node[0].appl.breakRanksSafetyDistance 2m
config *.node[*].appl.minSpeed 100kmph
config *.node[*].appl.maxSpeed 120kmph
config *.node[*].protocol_type "\"SimplePlatooningBeaconing\""
config *.node[*].prot.*.scalar-recording true
config *.node[*].prot.*.vector-recording true
config *.node[*].prot.beaconingInterval 0.1s
config *.node[*].prot.priority 4
config *.node[*].prot.packetSize 200
config **.traffic_type "\"PlatoonsTrafficManager\""
config **.traffic.platoonInsertTime "1 s"
config **.traffic.platoonInsertSpeed 110kmph
config **.traffic.nCars 12
config **.traffic.platoonSize 12
config **.traffic.nLanes 1
config **.traffic.platooningVType "\"vtypeauto\""
config **.traffic.controller "\"CACC\""
config **.traffic.platoonInsertDistance 2m
config **.traffic.platoonInsertHeadway 0s
config **.traffic.platoonLeaderHeadway 1.2s
config **.scalar-recording false
config **.vector-recording false

vector 0 Highway.node[0].appl distance ETV
vector 1 Highway.node[0].appl relativeSpeed ETV
vector 2 Highway.node[0].appl nodeId ETV
vector 3 Highway.node[0].appl acceleration ETV
vector 4 Highway.node[0].appl controllerAcceleration ETV
vector 5 Highway.node[0].appl speed ETV
vector 6 Highway.node[0].appl posx ETV
vector 7 Highway.node[0].appl posy ETV
vector 8 Highway.node[1].appl distance ETV
vector 9 Highway.node[1].appl relativeSpeed ETV
vector 10 Highway.node[1].appl nodeId ETV
vector 11 Highway.node[1].appl acceleration ETV
vector 12 Highway.node[1].appl controllerAcceleration ETV
vector 13 Highway.node[1].appl speed ETV
vector 14 Highway.node[1].appl posx ETV
vector 15 Highway.node[1].appl posy ETV
vector 16 Highway.node[2].appl distance ETV
vector 17 Highway.node[2].appl relativeSpeed ETV
vector 18 Highway.node[2].appl nodeId ETV
vector 19 Highway.node[2].appl acceleration ETV
vector 20 Highway.node[2].appl controllerAcceleration ETV
vector 21 Highway.node[2].appl speed ETV
vector 22 Highway.node[2].appl posx ETV
vector 23 Highway.node[2].appl posy ETV
vector 24 Highway.node[3].appl distance ETV
vector 25 Highway.node[3].appl relativeSpeed ETV
vector 26 Highway.node[3].appl nodeId ETV
vector 27 Highway.node[3].appl acceleration ETV
vector 28 Highway.node[3].appl controllerAcceleration ETV
vector 29 Highway.node[3].appl speed ETV
vector 30 Highway.node[3].appl posx ETV
vector 31 Highway.node[3].appl posy ETV
vector 32 Highway.node[4].appl distance ETV
vector 33 Highway.node[4].appl relativeSpeed ETV
vector 34 Highway.node[4].appl nodeId ETV
vector 35 Highway.node[4].appl acceleration ETV
vector 36 Highway.node[4].appl controllerAcceleration ETV
vector 37 Highway.node[4].appl speed ETV
vector 38 Highway.node[4].appl posx ETV
vector 39 Highway.node[4].appl posy ETV
vector 40 Highway.node[5].appl distance ETV
vector 41 Highway.node[5].appl relativeSpeed ETV
vector 42 Highway.node[5].appl nodeId ETV
vector 43 Highway.node[5].appl acceleration ETV
vector 44 Highway.node[5].appl controllerAcceleration ETV
vector 45 Highway.node[5].appl speed ETV
vector 46 Highway.node[5].appl posx ETV
vector 47 Highway.node[5].appl posy ETV
vector 48 Highway.node[6].appl distance ETV
vector 49 Highway.node[6].appl relativeSpeed ETV
vector 50 Highway.node[6].appl nodeId ETV
vector 51 Highway.node[6].appl acceleration ETV
vector 52 Highway.node[6].appl controllerAcceleration ETV
vector 53 Highway.node[6].appl speed ETV
vector 54 Highway.node[6].appl posx ETV
vector 55 Highway.node[6].appl posy ETV
vector 56 Highway.node[7].appl distance ETV
vector 57 Highway.node[7].appl relativeSpeed ETV
vector 58 Highway.node[7].appl nodeId ETV
vector 59 Highway.node[7].appl acceleration ETV
vector 60 Highway.node[7].appl controllerAcceleration ETV
vector 61 Highway.node[7].appl speed ETV
vector 62 Highway.node[7].appl posx ETV
vector 63 Highway.node[7].appl posy ETV
vector 64 Highway.node[8].appl distance ETV
vector 65 Highway.node[8].appl relativeSpeed ETV
vector 66 Highway.node[8].appl nodeId ETV
vector 67 Highway.node[8].appl acceleration ETV
vector 68 Highway.node[8].appl controllerAcceleration ETV
vector 69 Highway.node[8].appl speed ETV
vector 70 Highway.node[8].appl posx ETV
vector 71 Highway.node[8].appl posy ETV
vector 72 Highway.node[9].appl distance ETV
vector 73 Highway.node[9].appl relativeSpeed ETV
vector 74 Highway.node[9].appl nodeId ETV
vector 75 Highway.node[9].appl acceleration ETV
vector 76 Highway.node[9].appl controllerAcceleration ETV
vector 77 Highway.node[9].appl speed ETV
vector 78 Highway.node[9].appl posx ETV
vector 79 Highway.node[9].appl posy ETV
vector 80 Highway.node[10].appl distance ETV
vector 81 Highway.node[10].appl relativeSpeed ETV
vector 82 Highway.node[10].appl nodeId ETV
vector 83 Highway.node[10].appl acceleration ETV
vector 84 Highway.node[10].appl controllerAcceleration ETV
vector 85 Highway.node[10].appl speed ETV
vector 86 Highway.node[10].appl posx ETV
vector 87 Highway.node[10].appl posy ETV
vector 88 Highway.node[11].appl distance ETV
vector 89 Highway.node[11].appl relativeSpeed ETV
vector 90 Highway.node[11].appl nodeId ETV
vector 91 Highway.node[11].appl acceleration ETV
vector 92 Highway.node[11].appl controllerAcceleration ETV
vector 93 Highway.node[11].appl speed ETV
vector 94 Highway.node[11].appl posx ETV
vector 95 Highway.node[11].appl posy ETV
vector 96 Highway.node[8].prot frontDelay ETV
vector 97 Highway.node[8].prot frontDelayId ETV
vector 98 Highway.node[4].prot frontDelay ETV
vector 99 Highway.node[4].prot frontDelayId ETV
vector 100 Highway.node[10].prot frontDelay ETV
vector 101 Highway.node[10].prot frontDelayId ETV
vector 102 Highway.node[3].prot frontDelay ETV
vector 103 Highway.node[3].prot frontDelayId ETV
vector 104 Highway.node[5].prot frontDelay ETV
vector 105 Highway.node[5].prot frontDelayId ETV
vector 106 Highway.node[9].prot frontDelay ETV
vector 107 Highway.node[9].prot frontDelayId ETV
vector 108 Highway.node[7].prot frontDelay ETV
vector 109 Highway.node[7].prot frontDelayId ETV
vector 110 Highway.node[1].prot leaderDelay ETV
vector 111 Highway.node[1].prot leaderDelayId ETV
vector 112 Highway.node[1].prot frontDelay ETV
vector 113 Highway.node[1].prot frontDelayId ETV
vector 114 Highway.node[4].prot leaderDelay ETV
vector 115 Highway.node[4].prot leaderDelayId ETV
vector 116 Highway.node[5].prot leaderDelay ETV
vector 117 Highway.node[5].prot leaderDelayId ETV
vector 118 Highway.node[6].prot leaderDelay ETV
vector 119 Highway.node[6].prot leaderDelayId ETV
vector 120 Highway.node[7].prot leaderDelay ETV
vector 121 Highway.node[7].prot leaderDelayId ETV
vector 122 Highway.node[8].prot leaderDelay ETV
vector 123 Highway.node[8].prot leaderDelayId ETV
vector 124 Highway.node[9].prot leaderDelay ETV
vector 125 Highway.node[9].prot leaderDelayId ETV
vector 126 Highway.node[10].prot leaderDelay ETV
vector 127 Highway.node[10].prot leaderDelayId ETV
vector 128 Highway.node[11].prot leaderDelay ETV
vector 129 Highway.node[11].prot leaderDelayId ETV
vector 130 Highway.node[2].prot leaderDelay ETV
vector 131 Highway.node[2].prot leaderDelayId ETV
vector 132 Highway.node[3].prot leaderDelay ETV
vector 133 Highway.node[3].prot leaderDelayId ETV
vector 134 Highway.node[6].prot frontDelay ETV
vector 135 Highway.node[6].prot frontDelayId ETV
vector 136 Highway.node[2].prot frontDelay ETV
vector 137 Highway.node[2].prot frontDelayId ETV
vector 138 Highway.node[11].prot frontDelay ETV
vector 139 Highway.node[11].prot frontDelayId ETV
vector 140 Highway.node[0].prot nodeId ETV
vector 141 Highway.node[0].prot busyTime ETV
vector 142 Highway.node[0].prot collisions ETV
vector 143 Highway.node[1].prot nodeId ETV
vector 144 Highway.node[1].prot busyTime ETV
vector 145 Highway.node[1].prot collisions ETV
vector 146 Highway.node[2].prot nodeId ETV
vector 147 Highway.node[2].prot busyTime ETV
vector 148 Highway.node[2].prot collisions ETV
vector 149 Highway.node[3].prot nodeId ETV
vector 150 Highway.node[3].prot busyTime ETV
vector 151 Highway.node[3].prot collisions ETV
vector 152 Highway.node[4].prot nodeId ETV
vector 153 Highway.node[4].prot busyTime ETV
vector 154 Highway.node[4].prot collisions ETV
vector 155 Highway.node[5].prot nodeId ETV
vector 156 Highway.node[5].prot busyTime ETV
vector 157 Highway.node[5].prot collisions ETV
vector 158 Highway.node[6].prot nodeId ETV
vector 159 Highway.node[6].prot busyTime ETV
vector 160 Highway.node[6].prot collisions ETV
vector 161 Highway.node[7].prot nodeId ETV
vector 162 Highway.node[7].prot busyTime ETV
vector 163 Highway.node[7].prot collisions ETV
vector 164 Highway.node[8].prot nodeId ETV
vector 165 Highway.node[8].prot busyTime ETV
vector 166 Highway.node[8].prot collisions ETV
vector 167 Highway.node[9].prot nodeId ETV
vector 168 Highway.node[9].prot busyTime ETV
vector 169 Highway.node[9].prot collisions ETV
vector 170 Highway.node[10].prot nodeId ETV
vector 171 Highway.node[10].prot busyTime ETV
vector 172 Highway.node[10].prot collisions ETV
vector 173 Highway.node[11].prot nodeId ETV
vector 174 Highway.node[11].prot busyTime ETV
vector 175 Highway.node[11].prot collisions ETV
0	113	1.11	-1
0	1311	1.21	-1
0	2509	1.31	-1
0	3707	1.41	-1
0	4905	1.51	-1
0	6103	1.61	-1
0	7301	1.71	-1
0	8499	1.81	-1
0	9697	1.91	-1
0	10907	2.01	-1
0	12105	2.11	-1
0	13303	2.21	-1
0	14501	2.31	-1
0	15699	2.41	-1
0	16897	2.51	-1
0	18095	2.61	-1
0	19293	2.71	-1
0	20491	2.81	-1
0	21689	2.91	-1
0	22899	3.01	-1
0	24097	3.11	-1
0	25295	3.21	-1
0	26493	3.31	-1
0	27691	3.41	-1
0	28889	3.51	-1
0	30087	3.61	-1
0	31285	3.71	-1
0	32483	3.81	-1
0	33681	3.91	-1
0	34891	4.01	-1
0	36089	4.11	-1
0	37287	4.21	-1
0	38485	4.31	-1
0	39683	4.41	-1
0	40881	4.51	-1
0	42079	4.61	-1
0	43277	4.71	-1
0	44475	4.81	-1
0	45673	4.91	-1
0	46883	5.01	-1
0	48081	5.11	-1
0	49279	5.21	-1
0	50477	5.31	-1
0	51675	5.41	-1
0	52873	5.51	-1
0	54071	5.61	-1
0	55269	5.71	-1
0	56467	5.81	-1
0	57665	5.91	-1
0	58875	6.01	-1
0	60073	6.11	-1
0	61271	6.21	-1
0	62469	6.31	-1
0	63667	6.41	-1
0	64865	6.51	-1
0	66063	6.61	-1
0	67261	6.71	-1
0	68459	6.81	-1
0	69657	6.91	-1
0	70867	7.01	-1
0	72065	7.11	-1
0	73263	7.21	-1
0	74461	7.31	-1
0	75659	7.41	-1
0	76857	7.51	-1
0	78055	7.61	-1
0	79253	7.71	-1
0	80451	7.81	-1
0	81649	7.91	-1
0	82859	8.01	-1
0	84057	8.11	-1
0	85255	8.21	-1
0	86453	8.31	-1
0	87651	8.41	-1
0	88849	8.51	-1
0	90047	8.61	-1
0	91245	8.71	-1
0	92443	8.81	-1
0	93641	8.91	-1
0	94851	9.01	-1
0	96049	9.11	-1
0	97247	9.21	-1
0	98445	9.31	-1
0	99643	9.41	-1
0	100841	9.51	-1
0	102039	9.61	-1
0	103237	9.71	-1
0	104435	9.81	-1
0	105633	9.91	-1
0	111093	10.01	-1
0	112291	10.11	-1
0	113489	10.21	-1
0	114687	10.31	-1
0	115885	10.41	-1
0	117083	10.51	-1
0	118281	10.61	-1
0	119479	10.71	-1
0	120677	10.81	-1
0	121875	10.91	-1
0	123085	11.01	-1
0	124283	11.11	-1
0	125481	11.21	-1
0	126679	11.31	-1
0	127877	11.41	-1
0	129075	11.51	-1
0	130273	11.61	-1
0	131471	11.71	-1
0	132669	11.81	-1
0	133867	11.91	-1
0	135077	12.01	-1
0	136275	12.11	-1
0	137473	12.21	-1
0	138671	12.31	-1
0	139869	12.41	-1
0	141067	12.51	-1
0	142265	12.61	-1
0	143463	12.71	-1
0	144661	12.81	-1
0	145859	12.91	-1
0	147069	13.01	-1
0	148267	13.11	-1
0	149465	13.21	-1
0	150663	13.31	-1
0	151861	13.41	-1
0	153059	13.51	-1
0	154257	13.61	-1
0	155455	13.71	-1
0	156653	13.81	-1
0	157851	13.91	-1
0	159061	14.01	-1
0	160259	14.11	-1
0	161457	14.21	-1
0	162655	14.31	-1
0	163853	14.41	-1
0	165051	14.51	-1
0	166249	14.61	-1
0	167447	14.71	-1
0	168645	14.81	-1
0	169843	14.91	-1
0	171053	15.01	-1
0	172251	15.11	-1
0	173449	15.21	-1
0	174647	15.31	-1
0	175845	15.41	-1
0	177043	15.51	-1
0	178241	15.61	-1
0	179439	15.71	-1
0	180637	15.81	-1
0	181835	15.91	-1
0	183045	16.01	-1
0	184243	16.11	-1
0	185441	16.21	-1
0	186639	16.31	-1
0	187837	16.41	-1
0	189035	16.51	-1
0	190233	16.61	-1
0	191431	16.71	-1
0	192629	16.81	-1
0	193827	16.91	-1
0	195037	17.01	-1
0	196235	17.11	-1
0	197433	17.21	-1
0	198631	17.31	-1
0	199829	17.41	-1
0	201027	17.51	-1
0	202225	17.61	-1
0	203423	17.71	-1
0	204621	17.81	-1
0	205819	17.91	-1
0	207029	18.01	-1
0	208227	18.11	-1
0	209425	18.21	-1
0	210623	18.31	-1
0	211821	18.41	-1
0	213019	18.51	-1
0	214217	18.61	-1
0	215415	18.71	-1
0	216613	18.81	-1
0	217811	18.91	-1
0	219021	19.01	-1
0	220219	19.11	-1
0	221417	19.21	-1
0	222615	19.31	-1
0	223813	19.41	-1
0	225011	19.51	-1
0	226209	19.61	-1
0	227407	19.71	-1
0	228605	19.81	-1
0	229803	19.91	-1
0	231013	20.01	-1
0	232211	20.11	-1
0	233409	20.21	-1
0	234607	20.31	-1
0	235805	20.41	-1
0	237003	20.51	-1
0	238201	20.61	-1
0	239399	20.71	-1
0	240597	20.81	-1
0	241795	20.91	-1
0	243005	21.01	-1
0	244203	21.11	-1
0	245401	21.21	-1
0	246599	21.31	-1
0	247797	21.41	-1
0	248995	21.51	-1
0	250193	21.61	-1
0	251391	21.71	-1
0	252589	21.81	-1
0	253787	21.91	-1
0	254997	22.01	-1
0	256195	22.11	-1
0	257393	22.21	-1
0	258591	22.31	-1
0	259789	22.41	-1
0	260987	22.51	-1
0	262185	22.61	-1
0	263383	22.71	-1
0	264581	22.81	-1
0	265779	22.91	-1
0	266989	23.01	-1
0	268187	23.11	-1
0	269385	23.21	-1
0	270583	23.31	-1
0	271781	23.41	-1
0	272979	23.51	-1
0	274177	23.61	-1
0	275375	23.71	-1
0	276573	23.81	-1
0	277771	23.91	-1
0	278981	24.01	-1
0	280179	24.11	-1
0	281377	24.21	-1
0	282575	24.31	-1
0	283773	24.41	22.0671
0	284971	24.51	22.3115
0	286169	24.61	22.556
0	287367	24.71	22.8004
0	288565	24.81	23.0449
0	289763	24.91	23.2893
0	290973	25.01	23.5337
0	292171	25.11	23.7782
0	293369	25.21	24.0226
0	294567	25.31	24.2671
0	295765	25.41	24.5115
0	296963	25.51	24.7559
0	298161	25.61	25.0004
0	299359	25.71	25.2448
0	300557	25.81	25.4893
0	301755	25.91	25.7337
0	302965	26.01	25.9781
0	304163	26.11	26.2226
0	305361	26.21	26.467
0	306559	26.31	26.7115
0	307757	26.41	26.9559
0	308955	26.51	27.2003
0	310153	26.61	27.4448
0	311351	26.71	27.6892
0	312549	26.81	27.9337
0	313747	26.91	28.1781
0	314957	27.01	28.4225
0	316155	27.11	28.667
0	317353	27.21	28.9114
0	318551	27.31	29.1559
0	319749	27.41	29.4003
0	320947	27.51	29.6447
0	322145	27.61	29.8892
0	323343	27.71	30.1336
0	324541	27.81	30.3781
0	325739	27.91	30.6225
0	326949	28.01	30.8669
0	328147	28.11	31.1114
0	329345	28.21	31.3558
0	330543	28.31	31.6003
0	331741	28.41	31.8447
0	332939	28.51	32.0891
0	334137	28.61	32.3336
0	335335	28.71	32.578
0	336533	28.81	32.8225
0	337731	28.91	33.0669
0	338941	29.01	33.3113
0	340139	29.11	33.5558
0	341337	29.21	33.8002
0	342535	29.31	34.0447
0	343733	29.41	34.2891
0	344931	29.51	34.5335
0	346129	29.61	34.778
0	347327	29.71	35.0224
0	348525	29.81	35.2669
0	349723	29.91	35.5113
0	350933	30.01	35.7557
0	352131	30.11	36.0002
0	353329	30.21	36.2446
0	354527	30.31	36.4891
0	355725	30.41	36.7335
0	356923	30.51	36.9779
0	358121	30.61	37.2224
0	359319	30.71	37.4668
0	360517	30.81	37.7113
0	361715	30.91	37.9557
0	362925	31.01	38.2001
0	364123	31.11	38.4446
0	365321	31.21	38.689
0	366519	31.31	38.9335
0	367717	31.41	39.1779
0	368915	31.51	39.4223
0	370113	31.61	39.6668
0	371311	31.71	39.9112
0	372509	31.81	40.1557
0	373707	31.91	40.4001
0	374917	32.01	40.6445
0	376115	32.11	40.889
0	377313	32.21	41.1334
0	378511	32.31	41.3779
0	379709	32.41	41.6223
0	380907	32.51	41.8667
0	382105	32.61	42.1112
0	383303	32.71	42.3556
0	384501	32.81	42.6001
0	385699	32.91	42.8445
0	386909	33.01	43.0889
0	388107	33.11	43.3334
0	389305	33.21	43.5778
0	390503	33.31	43.8223
0	391701	33.41	44.0667
0	392899	33.51	44.3111
0	394097	33.61	44.5556
0	395295	33.71	44.8
0	396493	33.81	45.0445
0	397691	33.91	45.2889
0	398901	34.01	45.5333
0	400099	34.11	45.7778
0	401297	34.21	46.0222
0	402495	34.31	46.2667
0	403693	34.41	46.5111
0	404891	34.51	46.7555
0	406089	34.61	47
0	407287	34.71	47.2444
0	408485	34.81	47.4889
0	409683	34.91	47.7333
0	410893	35.01	47.9777
0	412091	35.11	48.2222
0	413289	35.21	48.4666
0	414487	35.31	48.7111
0	415685	35.41	48.9555
0	416883	35.51	49.1999
0	418081	35.61	49.4444
0	419279	35.71	49.6888
0	420477	35.81	49.9333
0	421675	35.91	50.1777
0	422885	36.01	50.4221
0	424083	36.11	50.6666
0	425281	36.21	50.911
0	426479	36.31	51.1555
0	427677	36.41	51.3999
0	428875	36.51	51.6443
0	430073	36.61	51.8888
0	431271	36.71	52.1332
0	432469	36.81	52.3777
0	433667	36.91	52.6221
0	434877	37.01	52.8665
0	436075	37.11	53.111
0	437273	37.21	53.3554
0	438471	37.31	53.5999
0	439669	37.41	53.8443
0	440867	37.51	54.0887
0	442065	37.61	54.3332
0	443263	37.71	54.5776
0	444461	37.81	54.8221
0	445659	37.91	55.0665
0	446869	38.01	55.3109
0	448067	38.11	55.5554
0	449265	38.21	55.7998
0	450463	38.31	56.0443
0	451661	38.41	56.2887
0	452859	38.51	56.5331
0	454057	38.61	56.7776
0	455255	38.71	57.022
0	456453	38.81	57.2665
0	457651	38.91	57.5109
0	458861	39.01	57.7553
0	460059	39.11	57.9998
0	461257	39.21	58.2442
0	462455	39.31	58.4887
0	463653	39.41	58.7331
0	464851	39.51	58.9775
0	466049	39.61	59.222
0	467247	39.71	59.4664
0	468445	39.81	59.7109
0	469643	39.91	59.9553
0	470853	40.01	60.1997
0	472051	40.11	60.4442
0	473249	40.21	60.6886
0	474447	40.31	60.9331
0	475645	40.41	61.1775
0	476843	40.51	61.4219
0	478041	40.61	61.6664
0	479239	40.71	61.9108
0	480437	40.81	62.1553
0	481635	40.91	62.3997
0	482845	41.01	62.6441
0	484043	41.11	62.8886
0	485241	41.21	63.133
0	486439	41.31	63.3775
0	487637	41.41	63.6219
0	488835	41.51	63.8663
0	490033	41.61	64.1108
0	491231	41.71	64.3552
0	492429	41.81	64.5997
0	493627	41.91	64.8441
0	494837	42.01	65.0885
0	496035	42.11	65.333
0	497233	42.21	65.5774
0	498431	42.31	65.8219
0	499629	42.41	66.0663
0	500827	42.51	66.3107
0	502025	42.61	66.5552
0	503223	42.71	66.7996
0	504421	42.81	67.0441
0	505619	42.91	67.2885
0	506829	43.01	67.5329
0	508027	43.11	67.7774
0	509225	43.21	68.0218
0	510423	43.31	68.2663
0	511621	43.41	68.5107
0	512819	43.51	68.7551
0	514017	43.61	68.9996
0	515215	43.71	69.244
0	516413	43.81	69.4885
0	517611	43.91	69.7329
0	518821	44.01	69.9773
0	520019	44.11	70.2218
0	521217	44.21	70.4662
0	522415	44.31	70.7107
0	523613	44.41	70.9551
0	524811	44.51	71.1995
0	526009	44.61	71.444
0	527207	44.71	71.6884
0	528405	44.81	71.9329
0	529603	44.91	72.1773
0	530813	45.01	72.4217
0	532011	45.11	72.6662
0	533209	45.21	72.9106
0	534407	45.31	73.1551
0	535605	45.41	73.3995
0	536803	45.51	73.6439
0	538001	45.61	73.8884
0	539199	45.71	74.1328
0	540397	45.81	74.3773
0	541595	45.91	74.6217
0	542805	46.01	74.8661
0	544003	46.11	75.1106
0	545201	46.21	75.355
0	546399	46.31	75.5995
0	547597	46.41	75.8439
0	548795	46.51	76.0883
0	549993	46.61	76.3328
0	551191	46.71	76.5772
0	552389	46.81	76.8217
0	553587	46.91	77.0661
0	554797	47.01	77.3105
0	555995	47.11	77.555
0	557193	47.21	77.7994
0	558391	47.31	78.0439
0	559589	47.41	78.2883
0	560787	47.51	78.5327
0	561985	47.61	78.7772
0	563183	47.71	79.0216
0	564381	47.81	79.2661
0	565579	47.91	79.5105
0	566789	48.01	79.7549
0	567987	48.11	79.9994
0	569185	48.21	80.2438
0	570383	48.31	80.4883
0	571581	48.41	80.7327
0	572779	48.51	80.9771
0	573977	48.61	81.2216
0	575175	48.71	81.466
0	576373	48.81	81.7105
0	577571	48.91	81.9549
0	578781	49.01	82.1993
0	579979	49.11	82.4438
0	581177	49.21	82.6882
0	582375	49.31	82.9327
0	583573	49.41	83.1771
0	584771	49.51	83.4215
0	585969	49.61	83.666
0	587167	49.71	83.9104
0	588365	49.81	84.1549
0	589563	49.91	84.3993
0	590773	50.01	84.6437
0	591971	50.11	84.8882
0	593169	50.21	85.1326
0	594367	50.31	85.3771
0	595565	50.41	85.6215
0	596763	50.51	85.8659
0	597961	50.61	86.1104
0	599159	50.71	86.3548
0	600357	50.81	86.5993
0	601555	50.91	86.8437
0	602765	51.01	87.0881
0	603963	51.11	87.3326
0	605161	51.21	87.577
0	606359	51.31	87.8215
0	607557	51.41	88.0659
0	608755	51.51	88.3103
0	609953	51.61	88.5548
0	611151	51.71	88.7992
0	612349	51.81	89.0437
0	613547	51.91	89.2881
0	614757	52.01	89.5325
0	615955	52.11	89.777
0	617153	52.21	90.0214
0	618351	52.31	90.2659
0	619549	52.41	90.5103
0	620747	52.51	90.7547
0	621945	52.61	90.9992
0	623143	52.71	91.2436
0	624341	52.81	91.4881
0	625539	52.91	91.7325
0	626749	53.01	91.9769
0	627947	53.11	92.2214
0	629145	53.21	92.4658
0	630343	53.31	92.7103
0	631541	53.41	92.9547
0	632739	53.51	93.1991
0	633937	53.61	93.4436
0	635135	53.71	93.688
0	636333	53.81	93.9325
0	637531	53.91	94.1769
0	638741	54.01	94.4213
0	639939	54.11	94.6658
0	641137	54.21	94.9102
0	642335	54.31	95.1547
0	643533	54.41	95.3991
0	644731	54.51	95.6435
0	645929	54.61	95.888
0	647127	54.71	96.1324
0	648325	54.81	96.3769
0	649523	54.91	96.6213
0	650733	55.01	96.8657
0	651931	55.11	97.1102
0	653129	55.21	97.3546
0	654327	55.31	97.5991
0	655525	55.41	97.8435
0	656723	55.51	98.0879
0	657921	55.61	98.3324
0	659119	55.71	98.5768
0	660317	55.81	98.8213
0	661515	55.91	99.0657
0	662725	56.01	99.3101
0	663923	56.11	99.5546
0	665121	56.21	99.799
0	666319	56.31	100.043
0	667517	56.41	100.288
0	668715	56.51	100.532
0	669913	56.61	100.777
0	671111	56.71	101.021
0	672309	56.81	101.266
0	673507	56.91	101.51
0	674717	57.01	101.755
0	675915	57.11	101.999
0	677113	57.21	102.243
0	678311	57.31	102.488
0	679509	57.41	102.732
0	680707	57.51	102.977
0	681905	57.61	103.221
0	683103	57.71	103.466
0	684301	57.81	103.71
0	685499	57.91	103.955
0	686709	58.01	104.199
0	687907	58.11	104.443
0	689105	58.21	104.688
0	690303	58.31	104.932
0	691501	58.41	105.177
0	692699	58.51	105.421
0	693897	58.61	105.666
0	695095	58.71	105.91
0	696293	58.81	106.154
0	697491	58.91	106.399
0	698701	59.01	106.643
0	699899	59.11	106.888
0	701097	59.21	107.132
0	702295	59.31	107.377
0	703493	59.41	107.621
0	704691	59.51	107.866
0	705889	59.61	108.11
0	707087	59.71	108.354
0	708285	59.81	108.599
0	709483	59.91	108.843
0	710693	60.01	109.088
0	711891	60.11	109.332
0	713089	60.21	109.577
0	714287	60.31	109.821
0	715485	60.41	110.066
0	716683	60.51	110.31
0	717881	60.61	110.554
0	719079	60.71	110.799
0	720277	60.81	111.043
0	721475	60.91	111.288
0	722685	61.01	111.532
0	723883	61.11	111.777
0	725081	61.21	112.021
0	726279	61.31	112.265
0	727477	61.41	112.51
0	728675	61.51	112.754
0	729873	61.61	112.999
0	731071	61.71	113.243
0	732269	61.81	113.488
0	733467	61.91	113.732
0	734677	62.01	113.977
0	735875	62.11	114.221
0	737073	62.21	114.465
0	738271	62.31	114.71
0	739469	62.41	114.954
0	740667	62.51	115.199
0	741865	62.61	115.443
0	743063	62.71	115.688
0	744261	62.81	115.932
0	745459	62.91	116.177
0	746669	63.01	116.421
0	747867	63.11	116.665
0	749065	63.21	116.91
0	750263	63.31	117.154
0	751461	63.41	117.399
0	752659	63.51	117.643
0	753857	63.61	117.888
0	755055	63.71	118.132
0	756253	63.81	118.376
0	757451	63.91	118.621
0	758661	64.01	118.865
0	759859	64.11	119.11
0	761057	64.21	119.354
0	762255	64.31	119.599
0	763453	64.41	119.843
0	764651	64.51	120.088
0	765849	64.61	120.332
0	767047	64.71	120.576
0	768245	64.81	120.821
0	769443	64.91	121.065
0	770653	65.01	121.31
0	771851	65.11	121.554
0	773049	65.21	121.799
0	774247	65.31	122.043
0	775445	65.41	122.288
0	776643	65.51	122.532
0	777841	65.61	122.776
0	779039	65.71	123.021
0	780237	65.81	25.5699
0	781435	65.91	25.7143
0	782645	66.01	25.8588
0	783843	66.11	26.0032
0	785041	66.21	26.1477
0	786239	66.31	26.2921
0	787437	66.41	26.4365
0	788635	66.51	26.581
0	789833	66.61	26.7254
0	791031	66.71	26.8699
0	792229	66.81	27.0143
0	793427	66.91	27.1587
0	794637	67.01	27.3032
0	795835	67.11	27.4476
0	797033	67.21	27.5921
0	798231	67.31	27.7365
0	799429	67.41	27.8809
0	800627	67.51	28.0254
0	801825	67.61	28.1698
0	803023	67.71	28.3143
0	804221	67.81	28.4587
0	805419	67.91	28.6031
0	806629	68.01	28.7476
0	807827	68.11	28.892
0	809025	68.21	29.0365
0	810223	68.31	29.1809
0	811421	68.41	29.3253
0	812619	68.51	29.4698
0	813817	68.61	29.6142
0	815015	68.71	29.7587
0	816213	68.81	29.9031
0	817411	68.91	30.0475
0	818621	69.01	30.192
0	819819	69.11	30.3364
0	821017	69.21	30.4809
0	822215	69.31	30.6253
0	823413	69.41	30.7697
0	824611	69.51	30.9142
0	825809	69.61	31.0586
0	827007	69.71	31.2031
0	828205	69.81	31.3475
0	829403	69.91	31.4919
0	830613	70.01	31.6364
0	831811	70.11	31.7808
0	833009	70.21	31.9253
0	834207	70.31	32.0697
0	835405	70.41	32.2141
0	836603	70.51	32.3586
0	837801	70.61	32.503
0	838999	70.71	32.6475
0	840197	70.81	32.7919
0	841395	70.91	32.9363
0	842605	71.01	33.0808
0	843803	71.11	33.2252
0	845001	71.21	33.3697
0	846199	71.31	33.5141
0	847397	71.41	33.6585
0	848595	71.51	33.803
0	849793	71.61	33.9474
0	850991	71.71	34.0919
0	852189	71.81	34.2363
0	853387	71.91	34.3807
0	854597	72.01	34.5252
0	855795	72.11	34.6696
0	856993	72.21	34.8141
0	858191	72.31	34.9585
0	859389	72.41	35.1029
0	860587	72.51	35.2474
0	861785	72.61	35.3918
0	862983	72.71	35.5363
0	864181	72.81	35.6807
0	865379	72.91	35.8251
0	866589	73.01	35.9696
0	867787	73.11	36.114
0	868985	73.21	36.2585
0	870183	73.31	36.4029
0	871381	73.41	36.5473
0	872579	73.51	36.6918
0	873777	73.61	36.8362
0	874975	73.71	36.9807
0	876173	73.81	37.1251
0	877371	73.91	37.2695
0	878581	74.01	37.414
0	879779	74.11	37.5584
0	880977	74.21	37.7029
0	882175	74.31	37.8473
0	883373	74.41	37.9917
0	884571	74.51	38.1362
0	885769	74.61	38.2806
0	886967	74.71	38.4251
0	888165	74.81	38.5695
0	889363	74.91	38.7139
0	890573	75.01	38.8584
0	891771	75.11	39.0028
0	892969	75.21	39.1473
0	894167	75.31	39.2917
0	895365	75.41	39.4361
0	896563	75.51	39.5806
0	897761	75.61	39.725
0	898959	75.71	39.8695
0	900157	75.81	40.0139
0	901355	75.91	40.1583
0	902565	76.01	40.3028
0	903763	76.11	40.4472
0	904961	76.21	40.5917
0	906159	76.31	40.7361
0	907357	76.41	40.8805
0	908555	76.51	41.025
0	909753	76.61	41.1694
0	910951	76.71	41.3139
0	912149	76.81	41.4583
0	913347	76.91	41.6027
0	914557	77.01	41.7472
0	915755	77.11	41.8916
0	916953	77.21	42.0361
0	918151	77.31	42.1805
0	919349	77.41	42.3249
0	920547	77.51	42.4694
0	921745	77.61	42.6138
0	922943	77.71	42.7583
0	924141	77.81	42.9027
0	925339	77.91	43.0471
0	926549	78.01	43.1916
0	927747	78.11	43.336
0	928945	78.21	43.4805
0	930143	78.31	43.6249
0	931341	78.41	43.7693
0	932539	78.51	43.9138
0	933737	78.61	44.0582
0	934935	78.71	44.2027
0	936133	78.81	44.3471
0	937331	78.91	44.4915
0	938541	79.01	44.636
0	939739	79.11	44.7804
0	940937	79.21	44.9249
0	942135	79.31	45.0693
0	943333	79.41	45.2137
0	944531	79.51	45.3582
0	945729	79.61	45.5026
0	946927	79.71	45.6471
0	948125	79.81	45.7915
0	949323	79.91	45.9359
0	950533	80.01	46.0804
0	951731	80.11	46.2248
0	952929	80.21	46.3693
0	954127	80.31	46.5137
0	955325	80.41	46.6581
0	956523	80.51	46.8026
0	957721	80.61	46.947
0	958919	80.71	47.0915
0	960117	80.81	47.2359
0	961315	80.91	47.3803
0	962525	81.01	47.5248
0	963723	81.11	47.6692
0	964921	81.21	47.8137
0	966119	81.31	47.9581
0	967317	81.41	48.1025
0	968515	81.51	48.247
0	969713	81.61	48.3914
0	970911	81.71	48.5359
0	972109	81.81	48.6803
0	973307	81.91	48.8247
0	974517	82.01	48.9692
0	975715	82.11	49.1136
0	976913	82.21	49.2581
0	978111	82.31	49.4025
0	979309	82.41	49.5469
0	980507	82.51	49.6914
0	981705	82.61	49.8358
0	982903	82.71	49.9803
0	984101	82.81	50.1247
0	985299	82.91	50.2691
0	986509	83.01	50.4136
0	987707	83.11	50.558
0	988905	83.21	50.7025
0	990103	83.31	50.8469
0	991301	83.41	50.9913
0	992499	83.51	51.1358
0	993697	83.61	51.2802
0	994895	83.71	51.4247
0	996093	83.81	51.5691
0	997291	83.91	51.7135
0	998501	84.01	51.858
0	999699	84.11	52.0024
0	1000897	84.21	52.1469
0	1002095	84.31	52.2913
0	1003293	84.41	52.4357
0	1004491	84.51	52.5802
0	1005689	84.61	52.7246
0	1006887	84.71	52.8691
0	1008085	84.81	53.0135
0	1009283	84.91	53.1579
0	1010493	85.01	53.3024
0	1011691	85.11	53.4468
0	1012889	85.21	53.5913
0	1014087	85.31	53.7357
0	1015285	85.41	53.8801
0	1016483	85.51	54.0246
0	1017681	85.61	54.169
0	1018879	85.71	54.3135
0	1020077	85.81	54.4579
0	1021275	85.91	54.6023
0	1022485	86.01	54.7468
0	1023683	86.11	54.8912
0	1024881	86.21	55.0357
0	1026079	86.31	55.1801
0	1027277	86.41	55.3245
0	1028475	86.51	55.469
0	1029673	86.61	55.6134
0	1030871	86.71	55.7579
0	1032069	86.81	55.9023
0	1033267	86.91	56.0467
0	1034477	87.01	56.1912
0	1035675	87.11	56.3356
0	1036873	87.21	56.4801
0	1038071	87.31	56.6245
0	1039269	87.41	56.7689
0	1040467	87.51	56.9134
0	1041665	87.61	57.0578
0	1042863	87.71	57.2023
0	1044061	87.81	57.3467
0	1045259	87.91	57.4911
0	1046469	88.01	57.6356
0	1047667	88.11	57.78
0	1048865	88.21	57.9245
0	1050063	88.31	58.0689
0	1051261	88.41	58.2133
0	1052459	88.51	58.3578
0	1053657	88.61	58.5022
0	1054855	88.71	58.6467
0	1056053	88.81	58.7911
0	1057251	88.91	58.9355
0	1058461	89.01	59.08
0	1059659	89.11	59.2244
0	1060857	89.21	59.3689
0	1062055	89.31	59.5133
0	1063253	89.41	59.6577
0	1064451	89.51	59.8022
0	1065649	89.61	59.9466
0	1066847	89.71	60.0911
0	1068045	89.81	60.2355
0	1069243	89.91	60.3799
0	1070453	90.01	60.5244
0	1071651	90.11	60.6688
0	1072849	90.21	60.8133
0	1074047	90.31	60.9577
0	1075245	90.41	61.1021
0	1076443	90.51	61.2466
0	1077641	90.61	61.391
0	1078839	90.71	61.5355
0	1080037	90.81	61.6799
0	1081235	90.91	61.8243
0	1082445	91.01	61.9688
0	1083643	91.11	62.1132
0	1084841	91.21	62.2577
0	1086039	91.31	62.4021
0	1087237	91.41	62.5465
0	1088435	91.51	62.691
0	1089633	91.61	62.8354
0	1090831	91.71	62.9799
0	1092029	91.81	63.1243
0	1093227	91.91	63.2687
0	1094437	92.01	63.4132
0	1095635	92.11	63.5576
0	1096833	92.21	63.7021
0	1098031	92.31	63.8465
0	1099229	92.41	63.9909
0	1100427	92.51	64.1354
0	1101625	92.61	64.2798
0	1102823	92.71	64.4243
0	1104021	92.81	64.5687
0	1105219	92.91	64.7131
0	1106429	93.01	64.8576
0	1107627	93.11	65.002
0	1108825	93.21	65.1465
0	1110023	93.31	65.2909
0	1111221	93.41	65.4353
0	1112419	93.51	65.5798
0	1113617	93.61	65.7242
0	1114815	93.71	65.8687
0	1116013	93.81	66.0131
0	1117211	93.91	66.1575
0	1118421	94.01	66.302
0	1119619	94.11	66.4464
0	1120817	94.21	66.5909
0	1122015	94.31	66.7353
0	1123213	94.41	66.8797
0	1124411	94.51	67.0242
0	1125609	94.61	67.1686
0	1126807	94.71	67.3131
0	1128005	94.81	67.4575
0	1129203	94.91	67.6019
0	1130413	95.01	67.7464
0	1131611	95.11	67.8908
0	1132809	95.21	68.0353
0	1134007	95.31	68.1797
0	1135205	95.41	68.3241
0	1136403	95.51	68.4686
0	1137601	95.61	68.613
0	1138799	95.71	68.7575
0	1139997	95.81	68.9019
0	1141195	95.91	69.0463
0	1142405	96.01	69.1908
0	1143603	96.11	69.3352
0	1144801	96.21	69.4797
0	1145999	96.31	69.6241
0	1147197	96.41	69.7685
0	1148395	96.51	69.913
0	1149593	96.61	70.0574
0	1150791	96.71	70.2019
0	1151989	96.81	70.3463
0	1153187	96.91	70.4907
0	1154397	97.01	70.6352
0	1155595	97.11	70.7796
0	1156793	97.21	70.9241
0	1157991	97.31	71.0685
0	1159189	97.41	71.2129
0	1160387	97.51	71.3574
0	1161585	97.61	71.5018
0	1162783	97.71	71.6463
0	1163981	97.81	71.7907
0	1165179	97.91	71.9351
0	1166389	98.01	72.0796
0	1167587	98.11	72.224
0	1168785	98.21	72.3685
0	1169983	98.31	72.5129
0	1171181	98.41	72.6573
0	1172379	98.51	72.8018
0	1173577	98.61	72.9462
0	1174775	98.71	73.0907
0	1175973	98.81	73.2351
0	1177171	98.91	73.3795
0	1178381	99.01	73.524
0	1179579	99.11	73.6684
0	1180777	99.21	73.8129
0	1181975	99.31	73.9573
0	1183173	99.41	74.1017
0	1184371	99.51	74.2462
0	1185569	99.61	74.3906
0	1186767	99.71	74.5351
0	1187965	99.81	74.6795
0	1189163	99.91	74.8239
1	113	1.11	0
1	1311	1.21	0
1	2509	1.31	0
1	3707	1.41	0
1	4905	1.51	0
1	6103	1.61	0
1	7301	1.71	0
1	8499	1.81	0
1	9697	1.91	0
1	10907	2.01	0
1	12105	2.11	0
1	13303	2.21	0
1	14501	2.31	0
1	15699	2.41	0
1	16897	2.51	0
1	18095	2.61	0
1	19293	2.71	0
1	20491	2.81	0
1	21689	2.91	0
1	22899	3.01	0
1	24097	3.11	0
1	25295	3.21	0
1	26493	3.31	0
1	27691	3.41	0
1	28889	3.51	0
1	30087	3.61	0
1	31285	3.71	0
1	32483	3.81	0
1	33681	3.91	0
1	34891	4.01	0
1	36089	4.11	0
1	37287	4.21	0
1	38485	4.31	0
1	39683	4.41	0
1	40881	4.51	0
1	42079	4.61	0
1	43277	4.71	0
1	44475	4.81	0
1	45673	4.91	0
1	46883	5.01	0
1	48081	5.11	0
1	49279	5.21	0
1	50477	5.31	0
1	51675	5.41	0
1	52873	5.51	0
1	54071	5.61	0
1	55269	5.71	0
1	56467	5.81	0
1	57665	5.91	0
1	58875	6.01	0
1	60073	6.11	0
1	61271	6.21	0
1	62469	6.31	0
1	63667	6.41	0
1	64865	6.51	0
1	66063	6.61	0
1	67261	6.71	0
1	68459	6.81	0
1	69657	6.91	0
1	70867	7.01	0
1	72065	7.11	0
1	73263	7.21	0
1	74461	7.31	0
1	75659	7.41	0
1	76857	7.51	0
1	78055	7.61	0
1	79253	7.71	0
1	80451	7.81	0
1	81649	7.91	0
1	82859	8.01	0
1	84057	8.11	0
1	85255	8.21	0
1	86453	8.31	0
1	87651	8.41	0
1	88849	8.51	0
1	90047	8.61	0
1	91245	8.71	0
1	92443	8.81	0
1	93641	8.91	0
1	94851	9.01	0
1	96049	9.11	0
1	97247	9.21	0
1	98445	9.31	0
1	99643	9.41	0
1	100841	9.51	0
1	102039	9.61	0
1	103237	9.71	0
1	104435	9.81	0
1	105633	9.91	0
1	111093	10.01	0
1	112291	10.11	0
1	113489	10.21	0
1	114687	10.31	0
1	115885	10.41	0
1	117083	10.51	0
1	118281	10.61	0
1	119479	10.71	0
1	120677	10.81	0
1	121875	10.91	0
1	123085	11.01	0
1	124283	11.11	0
1	125481	11.21	0
1	126679	11.31	0
1	127877	11.41	0
1	129075	11.51	0
1	130273	11.61	0
1	131471	11.71	0
1	132669	11.81	0
1	133867	11.91	0
1	135077	12.01	0
1	136275	12.11	0
1	137473	12.21	0
1	138671	12.31	0
1	139869	12.41	0
1	141067	12.51	0
1	142265	12.61	0
1	143463	12.71	0
1	144661	12.81	0
1	145859	12.91	0
1	147069	13.01	0
1	148267	13.11	0
1	149465	13.21	0
1	150663	13.31	0
1	151861	13.41	0
1	153059	13.51	0
1	154257	13.61	0
1	155455	13.71	0
1	156653	13.81	0
1	157851	13.91	0
1	159061	14.01	0
1	160259	14.11	0
1	161457	14.21	0
1	162655	14.31	0
1	163853	14.41	0
1	165051	14.51	0
1	166249	14.61	0
1	167447	14.71	0
1	168645	14.81	0
1	169843	14.91	0
1	171053	15.01	0
1	172251	15.11	0
1	173449	15.21	0
1	174647	15.31	0
1	175845	15.41	0
1	177043	15.51	0
1	178241	15.61	0
1	179439	15.71	0
1	180637	15.81	0
1	181835	15.91	0
1	183045	16.01	0
1	184243	16.11	0
1	185441	16.21	0
1	186639	16.31	0
1	187837	16.41	0
1	189035	16.51	0
1	190233	16.61	0
1	191431	16.71	0
1	192629	16.81	0
1	193827	16.91	0
1	195037	17.01	0
1	196235	17.11	0
1	197433	17.21	0
1	198631	17.31	0
1	199829	17.41	0
1	201027	17.51	0
1	202225	17.61	0
1	203423	17.71	0
1	204621	17.81	0
1	205819	17.91	0
1	207029	18.01	0
1	208227	18.11	0
1	209425	18.21	0
1	210623	18.31	0
1	211821	18.41	0
1	213019	18.51	0
1	214217	18.61	0
1	215415	18.71	0
1	216613	18.81	0
1	217811	18.91	0
1	219021	19.01	0
1	220219	19.11	0
1	221417	19.21	0
1	222615	19.31	0
1	223813	19.41	0
1	225011	19.51	0
1	226209	19.61	0
1	227407	19.71	0
1	228605	19.81	0
1	229803	19.91	0
1	231013	20.01	0
1	232211	20.11	0
1	233409	20.21	0
1	234607	20.31	0
1	235805	20.41	0
1	237003	20.51	0
1	238201	20.61	0
1	239399	20.71	0
1	240597	20.81	0
1	241795	20.91	0
1	243005	21.01	0
1	244203	21.11	0
1	245401	21.21	0
1	246599	21.31	0
1	247797	21.41	0
1	248995	21.51	0
1	250193	21.61	0
1	251391	21.71	0
1	252589	21.81	0
1	253787	21.91	0
1	254997	22.01	0
1	256195	22.11	0
1	257393	22.21	0
1	258591	22.31	0
1	259789	22.41	0
1	260987	22.51	0
1	262185	22.61	0
1	263383	22.71	0
1	264581	22.81	0
1	265779	22.91	0
1	266989	23.01	0
1	268187	23.11	0
1	269385	23.21	0
1	270583	23.31	0
1	271781	23.41	0
1	272979	23.51	0
1	274177	23.61	0
1	275375	23.71	0
1	276573	23.81	0
1	277771	23.91	0
1	278981	24.01	0
1	280179	24.11	0
1	281377	24.21	0
1	282575	24.31	0
1	283773	24.41	2.4444
1	284971	24.51	2.4444
1	286169	24.61	2.4444
1	287367	24.71	2.4444
1	288565	24.81	2.4444
1	289763	24.91	2.4444
1	290973	25.01	2.4444
1	292171	25.11	2.4444
1	293369	25.21	2.4444
1	294567	25.31	2.4444
1	295765	25.41	2.4444
1	296963	25.51	2.4444
1	298161	25.61	2.4444
1	299359	25.71	2.4444
1	300557	25.81	2.4444
1	301755	25.91	2.4444
1	302965	26.01	2.4444
1	304163	26.11	2.4444
1	305361	26.21	2.4444
1	306559	26.31	2.4444
1	307757	26.41	2.4444
1	308955	26.51	2.4444
1	310153	26.61	2.4444
1	311351	26.71	2.4444
1	312549	26.81	2.4444
1	313747	26.91	2.4444
1	314957	27.01	2.4444
1	316155	27.11	2.4444
1	317353	27.21	2.4444
1	318551	27.31	2.4444
1	319749	27.41	2.4444
1	320947	27.51	2.4444
1	322145	27.61	2.4444
1	323343	27.71	2.4444
1	324541	27.81	2.4444
1	325739	27.91	2.4444
1	326949	28.01	2.4444
1	328147	28.11	2.4444
1	329345	28.21	2.4444
1	330543	28.31	2.4444
1	331741	28.41	2.4444
1	332939	28.51	2.4444
1	334137	28.61	2.4444
1	335335	28.71	2.4444
1	336533	28.81	2.4444
1	337731	28.91	2.4444
1	338941	29.01	2.4444
1	340139	29.11	2.4444
1	341337	29.21	2.4444
1	342535	29.31	2.4444
1	343733	29.41	2.4444
1	344931	29.51	2.4444
1	346129	29.61	2.4444
1	347327	29.71	2.4444
1	348525	29.81	2.4444
1	349723	29.91	2.4444
1	350933	30.01	2.4444
1	352131	30.11	2.4444
1	353329	30.21	2.4444
1	354527	30.31	2.4444
1	355725	30.41	2.4444
1	356923	30.51	2.4444
1	358121	30.61	2.4444
1	359319	30.71	2.4444
1	360517	30.81	2.4444
1	361715	30.91	2.4444
1	362925	31.01	2.4444
1	364123	31.11	2.4444
1	365321	31.21	2.4444
1	366519	31.31	2.4444
1	367717	31.41	2.4444
1	368915	31.51	2.4444
1	370113	31.61	2.4444
1	371311	31.71	2.4444
1	372509	31.81	2.4444
1	373707	31.91	2.4444
1	374917	32.01	2.4444
1	376115	32.11	2.4444
1	377313	32.21	2.4444
1	378511	32.31	2.4444
1	379709	32.41	2.4444
1	380907	32.51	2.4444
1	382105	32.61	2.4444
1	383303	32.71	2.4444
1	384501	32.81	2.4444
1	385699	32.91	2.4444
1	386909	33.01	2.4444
1	388107	33.11	2.4444
1	389305	33.21	2.4444
1	390503	33.31	2.4444
1	391701	33.41	2.4444
1	392899	33.51	2.4444
1	394097	33.61	2.4444
1	395295	33.71	2.4444
1	396493	33.81	2.4444
1	397691	33.91	2.4444
1	398901	34.01	2.4444
1	400099	34.11	2.4444
1	401297	34.21	2.4444
1	402495	34.31	2.4444
1	403693	34.41	2.4444
1	404891	34.51	2.4444
1	406089	34.61	2.4444
1	407287	34.71	2.4444
1	408485	34.81	2.4444
1	409683	34.91	2.4444
1	410893	35.01	2.4444
1	412091	35.11	2.4444
1	413289	35.21	2.4444
1	414487	35.31	2.4444
1	415685	35.41	2.4444
1	416883	35.51	2.4444
1	418081	35.61	2.4444
1	419279	35.71	2.4444
1	420477	35.81	2.4444
1	421675	35.91	2.4444
1	422885	36.01	2.4444
1	424083	36.11	2.4444
1	425281	36.21	2.4444
1	426479	36.31	2.4444
1	427677	36.41	2.4444
1	428875	36.51	2.4444
1	430073	36.61	2.4444
1	431271	36.71	2.4444
1	432469	36.81	2.4444
1	433667	36.91	2.4444
1	434877	37.01	2.4444
1	436075	37.11	2.4444
1	437273	37.21	2.4444
1	438471	37.31	2.4444
1	439669	37.41	2.4444
1	440867	37.51	2.4444
1	442065	37.61	2.4444
1	443263	37.71	2.4444
1	444461	37.81	2.4444
1	445659	37.91	2.4444
1	446869	38.01	2.4444
1	448067	38.11	2.4444
1	449265	38.21	2.4444
1	450463	38.31	2.4444
1	451661	38.41	2.4444
1	452859	38.51	2.4444
1	454057	38.61	2.4444
1	455255	38.71	2.4444
1	456453	38.81	2.4444
1	457651	38.91	2.4444
1	458861	39.01	2.4444
1	460059	39.11	2.4444
1	461257	39.21	2.4444
1	462455	39.31	2.4444
1	463653	39.41	2.4444
1	464851	39.51	2.4444
1	466049	39.61	2.4444
1	467247	39.71	2.4444
1	468445	39.81	2.4444
1	469643	39.91	2.4444
1	470853	40.01	2.4444
1	472051	40.11	2.4444
1	473249	40.21	2.4444
1	474447	40.31	2.4444
1	475645	40.41	2.4444
1	476843	40.51	2.4444
1	478041	40.61	2.4444
1	479239	40.71	2.4444
1	480437	40.81	2.4444
1	481635	40.91	2.4444
1	482845	41.01	2.4444
1	484043	41.11	2.4444
1	485241	41.21	2.4444
1	486439	41.31	2.4444
1	487637	41.41	2.4444
1	488835	41.51	2.4444
1	490033	41.61	2.4444
1	491231	41.71	2.4444
1	492429	41.81	2.4444
1	493627	41.91	2.4444
1	494837	42.01	2.4444
1	496035	42.11	2.4444
1	497233	42.21	2.4444
1	498431	42.31	2.4444
1	499629	42.41	2.4444
1	500827	42.51	2.4444
1	502025	42.61	2.4444
1	503223	42.71	2.4444
1	504421	42.81	2.4444
1	505619	42.91	2.4444
1	506829	43.01	2.4444
1	508027	43.11	2.4444
1	509225	43.21	2.4444
1	510423	43.31	2.4444
1	511621	43.41	2.4444
1	512819	43.51	2.4444
1	514017	43.61	2.4444
1	515215	43.71	2.4444
1	516413	43.81	2.4444
1	517611	43.91	2.4444
1	518821	44.01	2.4444
1	520019	44.11	2.4444
1	521217	44.21	2.4444
1	522415	44.31	2.4444
1	523613	44.41	2.4444
1	524811	44.51	2.4444
1	526009	44.61	2.4444
1	527207	44.71	2.4444
1	528405	44.81	2.4444
1	529603	44.91	2.4444
1	530813	45.01	2.4444
1	532011	45.11	2.4444
1	533209	45.21	2.4444
1	534407	45.31	2.4444
1	535605	45.41	2.4444
1	536803	45.51	2.4444
1	538001	45.61	2.4444
1	539199	45.71	2.4444
1	540397	45.81	2.4444
1	541595	45.91	2.4444
1	542805	46.01	2.4444
1	544003	46.11	2.4444
1	545201	46.21	2.4444
1	546399	46.31	2.4444
1	547597	46.41	2.4444
1	548795	46.51	2.4444
1	549993	46.61	2.4444
1	551191	46.71	2.4444
1	552389	46.81	2.4444
1	553587	46.91	2.4444
1	554797	47.01	2.4444
1	555995	47.11	2.4444
1	557193	47.21	2.4444
1	558391	47.31	2.4444
1	559589	47.41	2.4444
1	560787	47.51	2.4444
1	561985	47.61	2.4444
1	563183	47.71	2.4444
1	564381	47.81	2.4444
1	565579	47.91	2.4444
1	566789	48.01	2.4444
1	567987	48.11	2.4444
1	569185	48.21	2.4444
1	570383	48.31	2.4444
1	571581	48.41	2.4444
1	572779	48.51	2.4444
1	573977	48.61	2.4444
1	575175	48.71	2.4444
1	576373	48.81	2.4444
1	577571	48.91	2.4444
1	578781	49.01	2.4444
1	579979	49.11	2.4444
1	581177	49.21	2.4444
1	582375	49.31	2.4444
1	583573	49.41	2.4444
1	584771	49.51	2.4444
1	585969	49.61	2.4444
1	587167	49.71	2.4444
1	588365	49.81	2.4444
1	589563	49.91	2.4444
1	590773	50.01	2.4444
1	591971	50.11	2.4444
1	593169	50.21	2.4444
1	594367	50.31	2.4444
1	595565	50.41	2.4444
1	596763	50.51	2.4444
1	597961	50.61	2.4444
1	599159	50.71	2.4444
1	600357	50.81	2.4444
1	601555	50.91	2.4444
1	602765	51.01	2.4444
1	603963	51.11	2.4444
1	605161	51.21	2.4444
1	606359	51.31	2.4444
1	607557	51.41	2.4444
1	608755	51.51	2.4444
1	609953	51.61	2.4444
1	611151	51.71	2.4444
1	612349	51.81	2.4444
1	613547	51.91	2.4444
1	614757	52.01	2.4444
1	615955	52.11	2.4444
1	617153	52.21	2.4444
1	618351	52.31	2.4444
1	619549	52.41	2.4444
1	620747	52.51	2.4444
1	621945	52.61	2.4444
1	623143	52.71	2.4444
1	624341	52.81	2.4444
1	625539	52.91	2.4444
1	626749	53.01	2.4444
1	627947	53.11	2.4444
1	629145	53.21	2.4444
1	630343	53.31	2.4444
1	631541	53.41	2.4444
1	632739	53.51	2.4444
1	633937	53.61	2.4444
1	635135	53.71	2.4444
1	636333	53.81	2.4444
1	637531	53.91	2.4444
1	638741	54.01	2.4444
1	639939	54.11	2.4444
1	641137	54.21	2.4444
1	642335	54.31	2.4444
1	643533	54.41	2.4444
1	644731	54.51	2.4444
1	645929	54.61	2.4444
1	647127	54.71	2.4444
1	648325	54.81	2.4444
1	649523	54.91	2.4444
1	650733	55.01	2.4444
1	651931	55.11	2.4444
1	653129	55.21	2.4444
1	654327	55.31	2.4444
1	655525	55.41	2.4444
1	656723	55.51	2.4444
1	657921	55.61	2.4444
1	659119	55.71	2.4444
1	660317	55.81	2.4444
1	661515	55.91	2.4444
1	662725	56.01	2.4444
1	663923	56.11	2.4444
1	665121	56.21	2.4444
1	666319	56.31	2.4444
1	667517	56.41	2.4444
1	668715	56.51	2.4444
1	669913	56.61	2.4444
1	671111	56.71	2.4444
1	672309	56.81	2.4444
1	673507	56.91	2.4444
1	674717	57.01	2.4444
1	675915	57.11	2.4444
1	677113	57.21	2.4444
1	678311	57.31	2.4444
1	679509	57.41	2.4444
1	680707	57.51	2.4444
1	681905	57.61	2.4444
1	683103	57.71	2.4444
1	684301	57.81	2.4444
1	685499	57.91	2.4444
1	686709	58.01	2.4444
1	687907	58.11	2.4444
1	689105	58.21	2.4444
1	690303	58.31	2.4444
1	691501	58.41	2.4444
1	692699	58.51	2.4444
1	693897	58.61	2.4444
1	695095	58.71	2.4444
1	696293	58.81	2.4444
1	697491	58.91	2.4444
1	698701	59.01	2.4444
1	699899	59.11	2.4444
1	701097	59.21	2.4444
1	702295	59.31	2.4444
1	703493	59.41	2.4444
1	704691	59.51	2.4444
1	705889	59.61	2.4444
1	707087	59.71	2.4444
1	708285	59.81	2.4444
1	709483	59.91	2.4444
1	710693	60.01	2.4444
1	711891	60.11	2.4444
1	713089	60.21	2.4444
1	714287	60.31	2.4444
1	715485	60.41	2.4444
1	716683	60.51	2.4444
1	717881	60.61	2.4444
1	719079	60.71	2.4444
1	720277	60.81	2.4444
1	721475	60.91	2.4444
1	722685	61.01	2.4444
1	723883	61.11	2.4444
1	725081	61.21	2.4444
1	726279	61.31	2.4444
1	727477	61.41	2.4444
1	728675	61.51	2.4444
1	729873	61.61	2.4444
1	731071	61.71	2.4444
1	732269	61.81	2.4444
1	733467	61.91	2.4444
1	734677	62.01	2.4444
1	735875	62.11	2.4444
1	737073	62.21	2.4444
1	738271	62.31	2.4444
1	739469	62.41	2.4444
1	740667	62.51	2.4444
1	741865	62.61	2.4444
1	743063	62.71	2.4444
1	744261	62.81	2.4444
1	745459	62.91	2.4444
1	746669	63.01	2.4444
1	747867	63.11	2.4444
1	749065	63.21	2.4444
1	750263	63.31	2.4444
1	751461	63.41	2.4444
1	752659	63.51	2.4444
1	753857	63.61	2.4444
1	755055	63.71	2.4444
1	756253	63.81	2.4444
1	757451	63.91	2.4444
1	758661	64.01	2.4444
1	759859	64.11	2.4444
1	761057	64.21	2.4444
1	762255	64.31	2.4444
1	763453	64.41	2.4444
1	764651	64.51	2.4444
1	765849	64.61	2.4444
1	767047	64.71	2.4444
1	768245	64.81	2.4444
1	769443	64.91	2.4444
1	770653	65.01	2.4444
1	771851	65.11	2.4444
1	773049	65.21	2.4444
1	774247	65.31	2.4444
1	775445	65.41	2.4444
1	776643	65.51	2.4444
1	777841	65.61	2.4444
1	779039	65.71	2.4444
1	780237	65.81	1.4444
1	781435	65.91	1.4444
1	782645	66.01	1.4444
1	783843	66.11	1.4444
1	785041	66.21	1.4444
1	786239	66.31	1.4444
1	787437	66.41	1.4444
1	788635	66.51	1.4444
1	789833	66.61	1.4444
1	791031	66.71	1.4444
1	792229	66.81	1.4444
1	793427	66.91	1.4444
1	794637	67.01	1.4444
1	795835	67.11	1.4444
1	797033	67.21	1.4444
1	798231	67.31	1.4444
1	799429	67.41	1.4444
1	800627	67.51	1.4444
1	801825	67.61	1.4444
1	803023	67.71	1.4444
1	804221	67.81	1.4444
1	805419	67.91	1.4444
1	806629	68.01	1.4444
1	807827	68.11	1.4444
1	809025	68.21	1.4444
1	810223	68.31	1.4444
1	811421	68.41	1.4444
1	812619	68.51	1.4444
1	813817	68.61	1.4444
1	815015	68.71	1.4444
1	816213	68.81	1.4444
1	817411	68.91	1.4444
1	818621	69.01	1.4444
1	819819	69.11	1.4444
1	821017	69.21	1.4444
1	822215	69.31	1.4444
1	823413	69.41	1.4444
1	824611	69.51	1.4444
1	825809	69.61	1.4444
1	827007	69.71	1.4444
1	828205	69.81	1.4444
1	829403	69.91	1.4444
1	830613	70.01	1.4444
1	831811	70.11	1.4444
1	833009	70.21	1.4444
1	834207	70.31	1.4444
1	835405	70.41	1.4444
1	836603	70.51	1.4444
1	837801	70.61	1.4444
1	838999	70.71	1.4444
1	840197	70.81	1.4444
1	841395	70.91	1.4444
1	842605	71.01	1.4444
1	843803	71.11	1.4444
1	845001	71.21	1.4444
1	846199	71.31	1.4444
1	847397	71.41	1.4444
1	848595	71.51	1.4444
1	849793	71.61	1.4444
1	850991	71.71	1.4444
1	852189	71.81	1.4444
1	853387	71.91	1.4444
1	854597	72.01	1.4444
1	855795	72.11	1.4444
1	856993	72.21	1.4444
1	858191	72.31	1.4444
1	859389	72.41	1.4444
1	860587	72.51	1.4444
1	861785	72.61	1.4444
1	862983	72.71	1.4444
1	864181	72.81	1.4444
1	865379	72.91	1.4444
1	866589	73.01	1.4444
1	867787	73.11	1.4444
1	868985	73.21	1.4444
1	870183	73.31	1.4444
1	871381	73.41	1.4444
1	872579	73.51	1.4444
1	873777	73.61	1.4444
1	874975	73.71	1.4444
1	876173	73.81	1.4444
1	877371	73.91	1.4444
1	878581	74.01	1.4444
1	879779	74.11	1.4444
1	880977	74.21	1.4444
1	882175	74.31	1.4444
1	883373	74.41	1.4444
1	884571	74.51	1.4444
1	885769	74.61	1.4444
1	886967	74.71	1.4444
1	888165	74.81	1.4444
1	889363	74.91	1.4444
1	890573	75.01	1.4444
1	891771	75.11	1.4444
1	892969	75.21	1.4444
1	894167	75.31	1.4444
1	895365	75.41	1.4444
1	896563	75.51	1.4444
1	897761	75.61	1.4444
1	898959	75.71	1.4444
1	900157	75.81	1.4444
1	901355	75.91	1.4444
1	902565	76.01	1.4444
1	903763	76.11	1.4444
1	904961	76.21	1.4444
1	906159	76.31	1.4444
1	907357	76.41	1.4444
1	908555	76.51	1.4444
1	909753	76.61	1.4444
1	910951	76.71	1.4444
1	912149	76.81	1.4444
1	913347	76.91	1.4444
1	914557	77.01	1.4444
1	915755	77.11	1.4444
1	916953	77.21	1.4444
1	918151	77.31	1.4444
1	919349	77.41	1.4444
1	920547	77.51	1.4444
1	921745	77.61	1.4444
1	922943	77.71	1.4444
1	924141	77.81	1.4444
1	925339	77.91	1.4444
1	926549	78.01	1.4444
1	927747	78.11	1.4444
1	928945	78.21	1.4444
1	930143	78.31	1.4444
1	931341	78.41	1.4444
1	932539	78.51	1.4444
1	933737	78.61	1.4444
1	934935	78.71	1.4444
1	936133	78.81	1.4444
1	937331	78.91	1.4444
1	938541	79.01	1.4444
1	939739	79.11	1.4444
1	940937	79.21	1.4444
1	942135	79.31	1.4444
1	943333	79.41	1.4444
1	944531	79.51	1.4444
1	945729	79.61	1.4444
1	946927	79.71	1.4444
1	948125	79.81	1.4444
1	949323	79.91	1.4444
1	950533	80.01	1.4444
1	951731	80.11	1.4444
1	952929	80.21	1.4444
1	954127	80.31	1.4444
1	955325	80.41	1.4444
1	956523	80.51	1.4444
1	957721	80.61	1.4444
1	958919	80.71	1.4444
1	960117	80.81	1.4444
1	961315	80.91	1.4444
1	962525	81.01	1.4444
1	963723	81.11	1.4444
1	964921	81.21	1.4444
1	966119	81.31	1.4444
1	967317	81.41	1.4444
1	968515	81.51	1.4444
1	969713	81.61	1.4444
1	970911	81.71	1.4444
1	972109	81.81	1.4444
1	973307	81.91	1.4444
1	974517	82.01	1.4444
1	975715	82.11	1.4444
1	976913	82.21	1.4444
1	978111	82.31	1.4444
1	979309	82.41	1.4444
1	980507	82.51	1.4444
1	981705	82.61	1.4444
1	982903	82.71	1.4444
1	984101	82.81	1.4444
1	985299	82.91	1.4444
1	986509	83.01	1.4444
1	987707	83.11	1.4444
1	988905	83.21	1.4444
1	990103	83.31	1.4444
1	991301	83.41	1.4444
1	992499	83.51	1.4444
1	993697	83.61	1.4444
1	994895	83.71	1.4444
1	996093	83.81	1.4444
1	997291	83.91	1.4444
1	998501	84.01	1.4444
1	999699	84.11	1.4444
1	1000897	84.21	1.4444
1	1002095	84.31	1.4444
1	1003293	84.41	1.4444
1	1004491	84.51	1.4444
1	1005689	84.61	1.4444
1	1006887	84.71	1.4444
1	1008085	84.81	1.4444
1	1009283	84.91	1.4444
1	1010493	85.01	1.4444
1	1011691	85.11	1.4444
1	1012889	85.21	1.4444
1	1014087	85.31	1.4444
1	1015285	85.41	1.4444
1	1016483	85.51	1.4444
1	1017681	85.61	1.4444
1	1018879	85.71	1.4444
1	1020077	85.81	1.4444
1	1021275	85.91	1.4444
1	1022485	86.01	1.4444
1	1023683	86.11	1.4444
1	1024881	86.21	1.4444
1	1026079	86.31	1.4444
1	1027277	86.41	1.4444
1	1028475	86.51	1.4444
1	1029673	86.61	1.4444
1	1030871	86.71	1.4444
1	1032069	86.81	1.4444
1	1033267	86.91	1.4444
1	1034477	87.01	1.4444
1	1035675	87.11	1.4444
1	1036873	87.21	1.4444
1	1038071	87.31	1.4444
1	1039269	87.41	1.4444
1	1040467	87.51	1.4444
1	1041665	87.61	1.4444
1	1042863	87.71	1.4444
1	1044061	87.81	1.4444
1	1045259	87.91	1.4444
1	1046469	88.01	1.4444
1	1047667	88.11	1.4444
1	1048865	88.21	1.4444
1	1050063	88.31	1.4444
1	1051261	88.41	1.4444
1	1052459	88.51	1.4444
1	1053657	88.61	1.4444
1	1054855	88.71	1.4444
1	1056053	88.81	1.4444
1	1057251	88.91	1.4444
1	1058461	89.01	1.4444
1	1059659	89.11	1.4444
1	1060857	89.21	1.4444
1	1062055	89.31	1.4444
1	1063253	89.41	1.4444
1	1064451	89.51	1.4444
1	1065649	89.61	1.4444
1	1066847	89.71	1.4444
1	1068045	89.81	1.4444
1	1069243	89.91	1.4444
1	1070453	90.01	1.4444
1	1071651	90.11	1.4444
1	1072849	90.21	1.4444
1	1074047	90.31	1.4444
1	1075245	90.41	1.4444
1	1076443	90.51	1.4444
1	1077641	90.61	1.4444
1	1078839	90.71	1.4444
1	1080037	90.81	1.4444
1	1081235	90.91	1.4444
1	1082445	91.01	1.4444
1	1083643	91.11	1.4444
1	1084841	91.21	1.4444
1	1086039	91.31	1.4444
1	1087237	91.41	1.4444
1	1088435	91.51	1.4444
1	1089633	91.61	1.4444
1	1090831	91.71	1.4444
1	1092029	91.81	1.4444
1	1093227	91.91	1.4444
1	1094437	92.01	1.4444
1	1095635	92.11	1.4444
1	1096833	92.21	1.4444
1	1098031	92.31	1.4444
1	1099229	92.41	1.4444
1	1100427	92.51	1.4444
1	1101625	92.61	1.4444
1	1102823	92.71	1.4444
1	1104021	92.81	1.4444
1	1105219	92.91	1.4444
1	1106429	93.01	1.4444
1	1107627	93.11	1.4444
1	1108825	93.21	1.4444
1	1110023	93.31	1.4444
1	1111221	93.41	1.4444
1	1112419	93.51	1.4444
1	1113617	93.61	1.4444
1	1114815	93.71	1.4444
1	1116013	93.81	1.4444
1	1117211	93.91	1.4444
1	1118421	94.01	1.4444
1	1119619	94.11	1.4444
1	1120817	94.21	1.4444
1	1122015	94.31	1.4444
1	1123213	94.41	1.4444
1	1124411	94.51	1.4444
1	1125609	94.61	1.4444
1	1126807	94.71	1.4444
1	1128005	94.81	1.4444
1	1129203	94.91	1.4444
1	1130413	95.01	1.4444
1	1131611	95.11	1.4444
1	1132809	95.21	1.4444
1	1134007	95.31	1.4444
1	1135205	95.41	1.4444
1	1136403	95.51	1.4444
1	1137601	95.61	1.4444
1	1138799	95.71	1.4444
1	1139997	95.81	1.4444
1	1141195	95.91	1.4444
1	1142405	96.01	1.4444
1	1143603	96.11	1.4444
1	1144801	96.21	1.4444
1	1145999	96.31	1.4444
1	1147197	96.41	1.4444
1	1148395	96.51	1.4444
1	1149593	96.61	1.4444
1	1150791	96.71	1.4444
1	1151989	96.81	1.4444
1	1153187	96.91	1.4444
1	1154397	97.01	1.4444
1	1155595	97.11	1.4444
1	1156793	97.21	1.4444
1	1157991	97.31	1.4444
1	1159189	97.41	1.4444
1	1160387	97.51	1.4444
1	1161585	97.61	1.4444
1	1162783	97.71	1.4444
1	1163981	97.81	1.4444
1	1165179	97.91	1.4444
1	1166389	98.01	1.4444
1	1167587	98.11	1.4444
1	1168785	98.21	1.4444
1	1169983	98.31	1.4444
1	1171181	98.41	1.4444
1	1172379	98.51	1.4444
1	1173577	98.61	1.4444
1	1174775	98.71	1.4444
1	1175973	98.81	1.4444
1	1177171	98.91	1.4444
1	1178381	99.01	1.4444
1	1179579	99.11	1.4444
1	1180777	99.21	1.4444
1	1181975	99.31	1.4444
1	1183173	99.41	1.4444
1	1184371	99.51	1.4444
1	1185569	99.61	1.4444
1	1186767	99.71	1.4444
1	1187965	99.81	1.4444
1	1189163	99.91	1.4444
2	113	1.11	0
2	1311	1.21	0
2	2509	1.31	0
2	3707	1.41	0
2	4905	1.51	0
2	6103	1.61	0
2	7301	1.71	0
2	8499	1.81	0
2	9697	1.91	0
2	10907	2.01	0
2	12105	2.11	0
2	13303	2.21	0
2	14501	2.31	0
2	15699	2.41	0
2	16897	2.51	0
2	18095	2.61	0
2	19293	2.71	0
2	20491	2.81	0
2	21689	2.91	0
2	22899	3.01	0
2	24097	3.11	0
2	25295	3.21	0
2	26493	3.31	0
2	27691	3.41	0
2	28889	3.51	0
2	30087	3.61	0
2	31285	3.71	0
2	32483	3.81	0
2	33681	3.91	0
2	34891	4.01	0
2	36089	4.11	0
2	37287	4.21	0
2	38485	4.31	0
2	39683	4.41	0
2	40881	4.51	0
2	42079	4.61	0
2	43277	4.71	0
2	44475	4.81	0
2	45673	4.91	0
2	46883	5.01	0
2	48081	5.11	0
2	49279	5.21	0
2	50477	5.31	0
2	51675	5.41	0
2	52873	5.51	0
2	54071	5.61	0
2	55269	5.71	0
2	56467	5.81	0
2	57665	5.91	0
2	58875	6.01	0
2	60073	6.11	0
2	61271	6.21	0
2	62469	6.31	0
2	63667	6.41	0
2	64865	6.51	0
2	66063	6.61	0
2	67261	6.71	0
2	68459	6.81	0
2	69657	6.91	0
2	70867	7.01	0
2	72065	7.11	0
2	73263	7.21	0
2	74461	7.31	0
2	75659	7.41	0
2	76857	7.51	0
2	78055	7.61	0
2	79253	7.71	0
2	80451	7.81	0
2	81649	7.91	0
2	82859	8.01	0
2	84057	8.11	0
2	85255	8.21	0
2	86453	8.31	0
2	87651	8.41	0
2	88849	8.51	0
2	90047	8.61	0
2	91245	8.71	0
2	92443	8.81	0
2	93641	8.91	0
2	94851	9.01	0
2	96049	9.11	0
2	97247	9.21	0
2	98445	9.31	0
2	99643	9.41	0
2	100841	9.51	0
2	102039	9.61	0
2	103237	9.71	0
2	104435	9.81	0
2	105633	9.91	0
2	111093	10.01	0
2	112291	10.11	0
2	113489	10.21	0
2	114687	10.31	0
2	115885	10.41	0
2	117083	10.51	0
2	118281	10.61	0
2	119479	10.71	0
2	120677	10.81	0
2	121875	10.91	0
2	123085	11.01	0
2	124283	11.11	0
2	125481	11.21	0
2	126679	11.31	0
2	127877	11.41	0
2	129075	11.51	0
2	130273	11.61	0
2	131471	11.71	0
2	132669	11.81	0
2	133867	11.91	0
2	135077	12.01	0
2	136275	12.11	0
2	137473	12.21	0
2	138671	12.31	0
2	139869	12.41	0
2	141067	12.51	0
2	142265	12.61	0
2	143463	12.71	0
2	144661	12.81	0
2	145859	12.91	0
2	147069	13.01	0
2	148267	13.11	0
2	149465	13.21	0
2	150663	13.31	0
2	151861	13.41	0
2	153059	13.51	0
2	154257	13.61	0
2	155455	13.71	0
2	156653	13.81	0
2	157851	13.91	0
2	159061	14.01	0
2	160259	14.11	0
2	161457	14.21	0
2	162655	14.31	0
2	163853	14.41	0
2	165051	14.51	0
2	166249	14.61	0
2	167447	14.71	0
2	168645	14.81	0
2	169843	14.91	0
2	171053	15.01	0
2	172251	15.11	0
2	173449	15.21	0
2	174647	15.31	0
2	175845	15.41	0
2	177043	15.51	0
2	178241	15.61	0
2	179439	15.71	0
2	180637	15.81	0
2	181835	15.91	0
2	183045	16.01	0
2	184243	16.11	0
2	185441	16.21	0
2	186639	16.31	0
2	187837	16.41	0
2	189035	16.51	0
2	190233	16.61	0
2	191431	16.71	0
2	192629	16.81	0
2	193827	16.91	0
2	195037	17.01	0
2	196235	17.11	0
2	197433	17.21	0
2	198631	17.31	0
2	199829	17.41	0
2	201027	17.51	0
2	202225	17.61	0
2	203423	17.71	0
2	204621	17.81	0
2	205819	17.91	0
2	207029	18.01	0
2	208227	18.11	0
2	209425	18.21	0
2	210623	18.31	0
2	211821	18.41	0
2	213019	18.51	0
2	214217	18.61	0
2	215415	18.71	0
2	216613	18.81	0
2	217811	18.91	0
2	219021	19.01	0
2	220219	19.11	0
2	221417	19.21	0
2	222615	19.31	0
2	223813	19.41	0
2	225011	19.51	0
2	226209	19.61	0
2	227407	19.71	0
2	228605	19.81	0
2	229803	19.91	0
2	231013	20.01	0
2	232211	20.11	0
2	233409	20.21	0
2	234607	20.31	0
2	235805	20.41	0
2	237003	20.51	0
2	238201	20.61	0
2	239399	20.71	0
2	240597	20.81	0
2	241795	20.91	0
2	243005	21.01	0
2	244203	21.11	0
2	245401	21.21	0
2	246599	21.31	0
2	247797	21.41	0
2	248995	21.51	0
2	250193	21.61	0
2	251391	21.71	0
2	252589	21.81	0
2	253787	21.91	0
2	254997	22.01	0
2	256195	22.11	0
2	257393	22.21	0
2	258591	22.31	0
2	259789	22.41	0
2	260987	22.51	0
2	262185	22.61	0
2	263383	22.71	0
2	264581	22.81	0
2	265779	22.91	0
2	266989	23.01	0
2	268187	23.11	0
2	269385	23.21	0
2	270583	23.31	0
2	271781	23.41	0
2	272979	23.51	0
2	274177	23.61	0
2	275375	23.71	0
2	276573	23.81	0
2	277771	23.91	0
2	278981	24.01	0
2	280179	24.11	0
2	281377	24.21	0
2	282575	24.31	0
2	283773	24.41	0
2	284971	24.51	0
2	286169	24.61	0
2	287367	24.71	0
2	288565	24.81	0
2	289763	24.91	0
2	290973	25.01	0
2	292171	25.11	0
2	293369	25.21	0
2	294567	25.31	0
2	295765	25.41	0
2	296963	25.51	0
2	298161	25.61	0
2	299359	25.71	0
2	300557	25.81	0
2	301755	25.91	0
2	302965	26.01	0
2	304163	26.11	0
2	305361	26.21	0
2	306559	26.31	0
2	307757	26.41	0
2	308955	26.51	0
2	310153	26.61	0
2	311351	26.71	0
2	312549	26.81	0
2	313747	26.91	0
2	314957	27.01	0
2	316155	27.11	0
2	317353	27.21	0
2	318551	27.31	0
2	319749	27.41	0
2	320947	27.51	0
2	322145	27.61	0
2	323343	27.71	0
2	324541	27.81	0
2	325739	27.91	0
2	326949	28.01	0
2	328147	28.11	0
2	329345	28.21	0
2	330543	28.31	0
2	331741	28.41	0
2	332939	28.51	0
2	334137	28.61	0
2	335335	28.71	0
2	336533	28.81	0
2	337731	28.91	0
2	338941	29.01	0
2	340139	29.11	0
2	341337	29.21	0
2	342535	29.31	0
2	343733	29.41	0
2	344931	29.51	0
2	346129	29.61	0
2	347327	29.71	0
2	348525	29.81	0
2	349723	29.91	0
2	350933	30.01	0
2	352131	30.11	0
2	353329	30.21	0
2	354527	30.31	0
2	355725	30.41	0
2	356923	30.51	0
2	358121	30.61	0
2	359319	30.71	0
2	360517	30.81	0
2	361715	30.91	0
2	362925	31.01	0
2	364123	31.11	0
2	365321	31.21	0
2	366519	31.31	0
2	367717	31.41	0
2	368915	31.51	0
2	370113	31.61	0
2	371311	31.71	0
2	372509	31.81	0
2	373707	31.91	0
2	374917	32.01	0
2	376115	32.11	0
2	377313	32.21	0
2	378511	32.31	0
2	379709	32.41	0
2	380907	32.51	0
2	382105	32.61	0
2	383303	32.71	0
2	384501	32.81	0
2	385699	32.91	0
2	386909	33.01	0
2	388107	33.11	0
2	389305	33.21	0
2	390503	33.31	0
2	391701	33.41	0
2	392899	33.51	0
2	394097	33.61	0
2	395295	33.71	0
2	396493	33.81	0
2	397691	33.91	0
2	398901	34.01	0
2	400099	34.11	0
2	401297	34.21	0
2	402495	34.31	0
2	403693	34.41	0
2	404891	34.51	0
2	406089	34.61	0
2	407287	34.71	0
2	408485	34.81	0
2	409683	34.91	0
2	410893	35.01	0
2	412091	35.11	0
2	413289	35.21	0
2	414487	35.31	0
2	415685	35.41	0
2	416883	35.51	0
2	418081	35.61	0
2	419279	35.71	0
2	420477	35.81	0
2	421675	35.91	0
2	422885	36.01	0
2	424083	36.11	0
2	425281	36.21	0
2	426479	36.31	0
2	427677	36.41	0
2	428875	36.51	0
2	430073	36.61	0
2	431271	36.71	0
2	432469	36.81	0
2	433667	36.91	0
2	434877	37.01	0
2	436075	37.11	0
2	437273	37.21	0
2	438471	37.31	0
2	439669	37.41	0
2	440867	37.51	0
2	442065	37.61	0
2	443263	37.71	0
2	444461	37.81	0
2	445659	37.91	0
2	446869	38.01	0
2	448067	38.11	0
2	449265	38.21	0
2	450463	38.31	0
2	451661	38.41	0
2	452859	38.51	0
2	454057	38.61	0
2	455255	38.71	0
2	456453	38.81	0
2	457651	38.91	0
2	458861	39.01	0
2	460059	39.11	0
2	461257	39.21	0
2	462455	39.31	0
2	463653	39.41	0
2	464851	39.51	0
2	466049	39.61	0
2	467247	39.71	0
2	468445	39.81	0
2	469643	39.91	0
2	470853	40.01	0
2	472051	40.11	0
2	473249	40.21	0
2	474447	40.31	0
2	475645	40.41	0
2	476843	40.51	0
2	478041	40.61	0
2	479239	40.71	0
2	480437	40.81	0
2	481635	40.91	0
2	482845	41.01	0
2	484043	41.11	0
2	485241	41.21	0
2	486439	41.31	0
2	487637	41.41	0
2	488835	41.51	0
2	490033	41.61	0
2	491231	41.71	0
2	492429	41.81	0
2	493627	41.91	0
2	494837	42.01	0
2	496035	42.11	0
2	497233	42.21	0
2	498431	42.31	0
2	499629	42.41	0
2	500827	42.51	0
2	502025	42.61	0
2	503223	42.71	0
2	504421	42.81	0
2	505619	42.91	0
2	506829	43.01	0
2	508027	43.11	0
2	509225	43.21	0
2	510423	43.31	0
2	511621	43.41	0
2	512819	43.51	0
2	514017	43.61	0
2	515215	43.71	0
2	516413	43.81	0
2	517611	43.91	0
2	518821	44.01	0
2	520019	44.11	0
2	521217	44.21	0
2	522415	44.31	0
2	523613	44.41	0
2	524811	44.51	0
2	526009	44.61	0
2	527207	44.71	0
2	528405	44.81	0
2	529603	44.91	0
2	530813	45.01	0
2	532011	45.11	0
2	533209	45.21	0
2	534407	45.31	0
2	535605	45.41	0
2	536803	45.51	0
2	538001	45.61	0
2	539199	45.71	0
2	540397	45.81	0
2	541595	45.91	0
2	542805	46.01	0
2	544003	46.11	0
2	545201	46.21	0
2	546399	46.31	0
2	547597	46.41	0
2	548795	46.51	0
2	549993	46.61	0
2	551191	46.71	0
2	552389	46.81	0
2	553587	46.91	0
2	554797	47.01	0
2	555995	47.11	0
2	557193	47.21	0
2	558391	47.31	0
2	559589	47.41	0
2	560787	47.51	0
2	561985	47.61	0
2	563183	47.71	0
2	564381	47.81	0
2	565579	47.91	0
2	566789	48.01	0
2	567987	48.11	0
2	569185	48.21	0
2	570383	48.31	0
2	571581	48.41	0
2	572779	48.51	0
2	573977	48.61	0
2	575175	48.71	0
2	576373	48.81	0
2	577571	48.91	0
2	578781	49.01	0
2	579979	49.11	0
2	581177	49.21	0
2	582375	49.31	0
2	583573	49.41	0
2	584771	49.51	0
2	585969	49.61	0
2	587167	49.71	0
2	588365	49.81	0
2	589563	49.91	0
2	590773	50.01	0
2	591971	50.11	0
2	593169	50.21	0
2	594367	50.31	0
2	595565	50.41	0
2	596763	50.51	0
2	597961	50.61	0
2	599159	50.71	0
2	600357	50.81	0
2	601555	50.91	0
2	602765	51.01	0
2	603963	51.11	0
2	605161	51.21	0
2	606359	51.31	0
2	607557	51.41	0
2	608755	51.51	0
2	609953	51.61	0
2	611151	51.71	0
2	612349	51.81	0
2	613547	51.91	0
2	614757	52.01	0
2	615955	52.11	0
2	617153	52.21	0
2	618351	52.31	0
2	619549	52.41	0
2	620747	52.51	0
2	621945	52.61	0
2	623143	52.71	0
2	624341	52.81	0
2	625539	52.91	0
2	626749	53.01	0
2	627947	53.11	0
2	629145	53.21	0
2	630343	53.31	0
2	631541	53.41	0
2	632739	53.51	0
2	633937	53.61	0
2	635135	53.71	0
2	636333	53.81	0
2	637531	53.91	0
2	638741	54.01	0
2	639939	54.11	0
2	641137	54.21	0
2	642335	54.31	0
2	643533	54.41	0
2	644731	54.51	0
2	645929	54.61	0
2	647127	54.71	0
2	648325	54.81	0
2	649523	54.91	0
2	650733	55.01	0
2	651931	55.11	0
2	653129	55.21	0
2	654327	55.31	0
2	655525	55.41	0
2	656723	55.51	0
2	657921	55.61	0
2	659119	55.71	0
2	660317	55.81	0
2	661515	55.91	0
2	662725	56.01	0
2	663923	56.11	0
2	665121	56.21	0
2	666319	56.31	0
2	667517	56.41	0
2	668715	56.51	0
2	669913	56.61	0
2	671111	56.71	0
2	672309	56.81	0
2	673507	56.91	0
2	674717	57.01	0
2	675915	57.11	0
2	677113	57.21	0
2	678311	57.31	0
2	679509	57.41	0
2	680707	57.51	0
2	681905	57.61	0
2	683103	57.71	0
2	684301	57.81	0
2	685499	57.91	0
2	686709	58.01	0
2	687907	58.11	0
2	689105	58.21	0
2	690303	58.31	0
2	691501	58.41	0
2	692699	58.51	0
2	693897	58.61	0
2	695095	58.71	0
2	696293	58.81	0
2	697491	58.91	0
2	698701	59.01	0
2	699899	59.11	0
2	701097	59.21	0
2	702295	59.31	0
2	703493	59.41	0
2	704691	59.51	0
2	705889	59.61	0
2	707087	59.71	0
2	708285	59.81	0
2	709483	59.91	0
2	710693	60.01	0
2	711891	60.11	0
2	713089	60.21	0
2	714287	60.31	0
2	715485	60.41	0
2	716683	60.51	0
2	717881	60.61	0
2	719079	60.71	0
2	720277	60.81	0
2	721475	60.91	0
2	722685	61.01	0
2	723883	61.11	0
2	725081	61.21	0
2	726279	61.31	0
2	727477	61.41	0
2	728675	61.51	0
2	729873	61.61	0
2	731071	61.71	0
2	732269	61.81	0
2	733467	61.91	0
2	734677	62.01	0
2	735875	62.11	0
2	737073	62.21	0
2	738271	62.31	0
2	739469	62.41	0
2	740667	62.51	0
2	741865	62.61	0
2	743063	62.71	0
2	744261	62.81	0
2	745459	62.91	0
2	746669	63.01	0
2	747867	63.11	0
2	749065	63.21	0
2	750263	63.31	0
2	751461	63.41	0
2	752659	63.51	0
2	753857	63.61	0
2	755055	63.71	0
2	756253	63.81	0
2	757451	63.91	0
2	758661	64.01	0
2	759859	64.11	0
2	761057	64.21	0
2	762255	64.31	0
2	763453	64.41	0
2	764651	64.51	0
2	765849	64.61	0
2	767047	64.71	0
2	768245	64.81	0
2	769443	64.91	0
2	770653	65.01	0
2	771851	65.11	0
2	773049	65.21	0
2	774247	65.31	0
2	775445	65.41	0
2	776643	65.51	0
2	777841	65.61	0
2	779039	65.71	0
2	780237	65.81	0
2	781435	65.91	0
2	782645	66.01	0
2	783843	66.11	0
2	785041	66.21	0
2	786239	66.31	0
2	787437	66.41	0
2	788635	66.51	0
2	789833	66.61	0
2	791031	66.71	0
2	792229	66.81	0
2	793427	66.91	0
2	794637	67.01	0
2	795835	67.11	0
2	797033	67.21	0
2	798231	67.31	0
2	799429	67.41	0
2	800627	67.51	0
2	801825	67.61	0
2	803023	67.71	0
2	804221	67.81	0
2	805419	67.91	0
2	806629	68.01	0
2	807827	68.11	0
2	809025	68.21	0
2	810223	68.31	0
2	811421	68.41	0
2	812619	68.51	0
2	813817	68.61	0
2	815015	68.71	0
2	816213	68.81	0
2	817411	68.91	0
2	818621	69.01	0
2	819819	69.11	0
2	821017	69.21	0
2	822215	69.31	0
2	823413	69.41	0
2	824611	69.51	0
2	825809	69.61	0
2	827007	69.71	0
2	828205	69.81	0
2	829403	69.91	0
2	830613	70.01	0
2	831811	70.11	0
2	833009	70.21	0
2	834207	70.31	0
2	835405	70.41	0
2	836603	70.51	0
2	837801	70.61	0
2	838999	70.71	0
2	840197	70.81	0
2	841395	70.91	0
2	842605	71.01	0
2	843803	71.11	0
2	845001	71.21	0
2	846199	71.31	0
2	847397	71.41	0
2	848595	71.51	0
2	849793	71.61	0
2	850991	71.71	0
2	852189	71.81	0
2	853387	71.91	0
2	854597	72.01	0
2	855795	72.11	0
2	856993	72.21	0
2	858191	72.31	0
2	859389	72.41	0
2	860587	72.51	0
2	861785	72.61	0
2	862983	72.71	0
2	864181	72.81	0
2	865379	72.91	0
2	866589	73.01	0
2	867787	73.11	0
2	868985	73.21	0
2	870183	73.31	0
2	871381	73.41	0
2	872579	73.51	0
2	873777	73.61	0
2	874975	73.71	0
2	876173	73.81	0
2	877371	73.91	0
2	878581	74.01	0
2	879779	74.11	0
2	880977	74.21	0
2	882175	74.31	0
2	883373	74.41	0
2	884571	74.51	0
2	885769	74.61	0
2	886967	74.71	0
2	888165	74.81	0
2	889363	74.91	0
2	890573	75.01	0
2	891771	75.11	0
2	892969	75.21	0
2	894167	75.31	0
2	895365	75.41	0
2	896563	75.51	0
2	897761	75.61	0
2	898959	75.71	0
2	900157	75.81	0
2	901355	75.91	0
2	902565	76.01	0
2	903763	76.11	0
2	904961	76.21	0
2	906159	76.31	0
2	907357	76.41	0
2	908555	76.51	0
2	909753	76.61	0
2	910951	76.71	0
2	912149	76.81	0
2	913347	76.91	0
2	914557	77.01	0
2	915755	77.11	0
2	916953	77.21	0
2	918151	77.31	0
2	919349	77.41	0
2	920547	77.51	0
2	921745	77.61	0
2	922943	77.71	0
2	924141	77.81	0
2	925339	77.91	0
2	926549	78.01	0
2	927747	78.11	0
2	928945	78.21	0
2	930143	78.31	0
2	931341	78.41	0
2	932539	78.51	0
2	933737	78.61	0
2	934935	78.71	0
2	936133	78.81	0
2	937331	78.91	0
2	938541	79.01	0
2	939739	79.11	0
2	940937	79.21	0
2	942135	79.31	0
2	943333	79.41	0
2	944531	79.51	0
2	945729	79.61	0
2	946927	79.71	0
2	948125	79.81	0
2	949323	79.91	0
2	950533	80.01	0
2	951731	80.11	0
2	952929	80.21	0
2	954127	80.31	0
2	955325	80.41	0
2	956523	80.51	0
2	957721	80.61	0
2	958919	80.71	0
2	960117	80.81	0
2	961315	80.91	0
2	962525	81.01	0
2	963723	81.11	0
2	964921	81.21	0
2	966119	81.31	0
2	967317	81.41	0
2	968515	81.51	0
2	969713	81.61	0
2	970911	81.71	0
2	972109	81.81	0
2	973307	81.91	0
2	974517	82.01	0
2	975715	82.11	0
2	976913	82.21	0
2	978111	82.31	0
2	979309	82.41	0
2	980507	82.51	0
2	981705	82.61	0
2	982903	82.71	0
2	984101	82.81	0
2	985299	82.91	0
2	986509	83.01	0
2	987707	83.11	0
2	988905	83.21	0
2	990103	83.31	0
2	991301	83.41	0
2	992499	83.51	0
2	993697	83.61	0
2	994895	83.71	0
2	996093	83.81	0
2	997291	83.91	0
2	998501	84.01	0
2	999699	84.11	0
2	1000897	84.21	0
2	1002095	84.31	0
2	1003293	84.41	0
2	1004491	84.51	0
2	1005689	84.61	0
2	1006887	84.71	0
2	1008085	84.81	0
2	1009283	84.91	0
2	1010493	85.01	0
2	1011691	85.11	0
2	1012889	85.21	0
2	1014087	85.31	0
2	1015285	85.41	0
2	1016483	85.51	0
2	1017681	85.61	0
2	1018879	85.71	0
2	1020077	85.81	0
2	1021275	85.91	0
2	1022485	86.01	0
2	1023683	86.11	0
2	1024881	86.21	0
2	1026079	86.31	0
2	1027277	86.41	0
2	1028475	86.51	0
2	1029673	86.61	0
2	1030871	86.71	0
2	1032069	86.81	0
2	1033267	86.91	0
2	1034477	87.01	0
2	1035675	87.11	0
2	1036873	87.21	0
2	1038071	87.31	0
2	1039269	87.41	0
2	1040467	87.51	0
2	1041665	87.61	0
2	1042863	87.71	0
2	1044061	87.81	0
2	1045259	87.91	0
2	1046469	88.01	0
2	1047667	88.11	0
2	1048865	88.21	0
2	1050063	88.31	0
2	1051261	88.41	0
2	1052459	88.51	0
2	1053657	88.61	0
2	1054855	88.71	0
2	1056053	88.81	0
2	1057251	88.91	0
2	1058461	89.01	0
2	1059659	89.11	0
2	1060857	89.21	0
2	1062055	89.31	0
2	1063253	89.41	0
2	1064451	89.51	0
2	1065649	89.61	0
2	1066847	89.71	0
2	1068045	89.81	0
2	1069243	89.91	0
2	1070453	90.01	0
2	1071651	90.11	0
2	1072849	90.21	0
2	1074047	90.31	0
2	1075245	90.41	0
2	1076443	90.51	0
2	1077641	90.61	0
2	1078839	90.71	0
2	1080037	90.81	0
2	1081235	90.91	0
2	1082445	91.01	0
2	1083643	91.11	0
2	1084841	91.21	0
2	1086039	91.31	0
2	1087237	91.41	0
2	1088435	91.51	0
2	1089633	91.61	0
2	1090831	91.71	0
2	1092029	91.81	0
2	1093227	91.91	0
2	1094437	92.01	0
2	1095635	92.11	0
2	1096833	92.21	0
2	1098031	92.31	0
2	1099229	92.41	0
2	1100427	92.51	0
2	1101625	92.61	0
2	1102823	92.71	0
2	1104021	92.81	0
2	1105219	92.91	0
2	1106429	93.01	0
2	1107627	93.11	0
2	1108825	93.21	0
2	1110023	93.31	0
2	1111221	93.41	0
2	1112419	93.51	0
2	1113617	93.61	0
2	1114815	93.71	0
2	1116013	93.81	0
2	1117211	93.91	0
2	1118421	94.01	0
2	1119619	94.11	0
2	1120817	94.21	0
2	1122015	94.31	0
2	1123213	94.41	0
2	1124411	94.51	0
2	1125609	94.61	0
2	1126807	94.71	0
2	1128005	94.81	0
2	1129203	94.91	0
2	1130413	95.01	0
2	1131611	95.11	0
2	1132809	95.21	0
2	1134007	95.31	0
2	1135205	95.41	0
2	1136403	95.51	0
2	1137601	95.61	0
2	1138799	95.71	0
2	1139997	95.81	0
2	1141195	95.91	0
2	1142405	96.01	0
2	1143603	96.11	0
2	1144801	96.21	0
2	1145999	96.31	0
2	1147197	96.41	0
2	1148395	96.51	0
2	1149593	96.61	0
2	1150791	96.71	0
2	1151989	96.81	0
2	1153187	96.91	0
2	1154397	97.01	0
2	1155595	97.11	0
2	1156793	97.21	0
2	1157991	97.31	0
2	1159189	97.41	0
2	1160387	97.51	0
2	1161585	97.61	0
2	1162783	97.71	0
2	1163981	97.81	0
2	1165179	97.91	0
2	1166389	98.01	0
2	1167587	98.11	0
2	1168785	98.21	0
2	1169983	98.31	0
2	1171181	98.41	0
2	1172379	98.51	0
2	1173577	98.61	0
2	1174775	98.71	0
2	1175973	98.81	0
2	1177171	98.91	0
2	1178381	99.01	0
2	1179579	99.11	0
2	1180777	99.21	0
2	1181975	99.31	0
2	1183173	99.41	0
2	1184371	99.51	0
2	1185569	99.61	0
2	1186767	99.71	0
2	1187965	99.81	0
2	1189163	99.91	0
3	113	1.11	-0.000716383
3	1311	1.21	-0.00136341
3	2509	1.31	-0.00186974
3	3707	1.41	-0.00225157
3	4905	1.51	-0.00252443
3	6103	1.61	-0.00270298
3	7301	1.71	-0.00280098
3	8499	1.81	-0.00283113
3	9697	1.91	-0.00280509
3	10907	2.01	-0.00273342
3	12105	2.11	-0.00262559
3	13303	2.21	-0.00249005
3	14501	2.31	-0.00233419
3	15699	2.41	-0.00216447
3	16897	2.51	-0.00198642
3	18095	2.61	-0.00180472
3	19293	2.71	-0.0016233
3	20491	2.81	-0.00144536
3	21689	2.91	-0.00127346
3	22899	3.01	-0.0011096
3	24097	3.11	-0.000955278
3	25295	3.21	-0.000811546
3	26493	3.31	-0.00067908
3	27691	3.41	-0.000558232
3	28889	3.51	-0.000449082
3	30087	3.61	-0.000351487
3	31285	3.71	-0.00026512
3	32483	3.81	-0.000189514
3	33681	3.91	-0.000124092
3	34891	4.01	-6.81972e-05
3	36089	4.11	-2.11209e-05
3	37287	4.21	1.78769e-05
3	38485	4.31	4.9548e-05
3	39683	4.41	7.46407e-05
3	40881	4.51	9.38867e-05
3	42079	4.61	0.000107991
3	43277	4.71	0.000117625
3	44475	4.81	0.000123418
3	45673	4.91	0.000125957
3	46883	5.01	0.000125781
3	48081	5.11	0.00012338
3	49279	5.21	0.000119198
3	50477	5.31	0.000113629
3	51675	5.41	0.000107022
3	52873	5.51	9.96832e-05
3	54071	5.61	9.18747e-05
3	55269	5.71	8.38211e-05
3	56467	5.81	7.57109e-05
3	57665	5.91	6.76999e-05
3	58875	6.01	5.99137e-05
3	60073	6.11	5.24518e-05
3	61271	6.21	4.53896e-05
3	62469	6.31	3.87821e-05
3	63667	6.41	3.2666e-05
3	64865	6.51	2.70628e-05
3	66063	6.61	2.19809e-05
3	67261	6.71	1.74176e-05
3	68459	6.81	1.33618e-05
3	69657	6.91	9.79494e-06
3	70867	7.01	6.6932e-06
3	72065	7.11	4.02864e-06
3	73263	7.21	1.77051e-06
3	74461	7.31	-1.13691e-07
3	75659	7.41	-1.65736e-06
3	76857	7.51	-2.89397e-06
3	78055	7.61	-3.85652e-06
3	79253	7.71	-4.57698e-06
3	80451	7.81	-5.08591e-06
3	81649	7.91	-5.41219e-06
3	82859	8.01	-5.58279e-06
3	84057	8.11	-5.6226e-06
3	85255	8.21	-5.55442e-06
3	86453	8.31	-5.39886e-06
3	87651	8.41	-5.17441e-06
3	88849	8.51	-4.89748e-06
3	90047	8.61	-4.58246e-06
3	91245	8.71	-4.24184e-06
3	92443	8.81	-3.88634e-06
3	93641	8.91	-3.52499e-06
3	94851	9.01	-3.16534e-06
3	96049	9.11	-2.81353e-06
3	97247	9.21	-2.47446e-06
3	98445	9.31	-2.15192e-06
3	99643	9.41	-1.84873e-06
3	100841	9.51	-1.56685e-06
3	102039	9.61	-1.30751e-06
3	103237	9.71	-1.0713e-06
3	104435	9.81	-8.58321e-07
3	105633	9.91	-6.68206e-07
3	111093	10.01	-5.0026e-07
3	112291	10.11	-3.53514e-07
3	113489	10.21	-2.2679e-07
3	114687	10.31	-1.18765e-07
3	115885	10.41	-2.80163e-08
3	117083	10.51	4.6931e-08
3	118281	10.61	1.07573e-07
3	119479	10.71	1.55391e-07
3	120677	10.81	1.91831e-07
3	121875	10.91	2.18284e-07
3	123085	11.01	2.3607e-07
3	124283	11.11	2.46427e-07
3	125481	11.21	2.50502e-07
3	126679	11.31	2.49353e-07
3	127877	11.41	2.43938e-07
3	129075	11.51	2.3512e-07
3	130273	11.61	2.23669e-07
3	131471	11.71	2.10264e-07
3	132669	11.81	1.95496e-07
3	133867	11.91	1.79874e-07
3	135077	12.01	1.63833e-07
3	136275	12.11	1.47736e-07
3	137473	12.21	1.3188e-07
3	138671	12.31	1.16508e-07
3	139869	12.41	1.01807e-07
3	141067	12.51	8.79222e-08
3	142265	12.61	7.49541e-08
3	143463	12.71	6.29711e-08
3	144661	12.81	5.20114e-08
3	145859	12.91	4.20883e-08
3	147069	13.01	3.3193e-08
3	148267	13.11	2.53003e-08
3	149465	13.21	1.83718e-08
3	150663	13.31	1.23581e-08
3	151861	13.41	7.20348e-09
3	153059	13.51	2.84537e-09
3	154257	13.61	-7.80886e-10
3	155455	13.71	-3.74136e-09
3	156653	13.81	-6.10285e-09
3	157851	13.91	-7.93072e-09
3	159061	14.01	-9.28821e-09
3	160259	14.11	-1.0235e-08
3	161457	14.21	-1.08283e-08
3	162655	14.31	-1.11211e-08
3	163853	14.41	-1.11612e-08
3	165051	14.51	-1.09946e-08
3	166249	14.61	-1.06599e-08
3	167447	14.71	-1.01945e-08
3	168645	14.81	-9.62999e-09
3	169843	14.91	-8.99405e-09
3	171053	15.01	-8.31086e-09
3	172251	15.11	-7.60103e-09
3	173449	15.21	-6.88338e-09
3	174647	15.31	-6.17071e-09
3	175845	15.41	-5.47544e-09
3	177043	15.51	-4.80682e-09
3	178241	15.61	-4.17266e-09
3	179439	15.71	-3.57687e-09
3	180637	15.81	-3.02443e-09
3	181835	15.91	-2.51674e-09
3	183045	16.01	-2.05489e-09
3	184243	16.11	-1.63958e-09
3	185441	16.21	-1.26903e-09
3	186639	16.31	-9.42535e-10
3	187837	16.41	-6.57963e-10
3	189035	16.51	-4.1247e-10
3	190233	16.61	-2.04636e-10
3	191431	16.71	-2.91323e-11
3	192629	16.81	1.14753e-10
3	193827	16.91	2.30926e-10
3	195037	17.01	3.22231e-10
3	196235	17.11	3.91154e-10
3	197433	17.21	4.40892e-10
3	198631	17.31	4.73577e-10
3	199829	17.41	4.92051e-10
3	201027	17.51	4.98446e-10
3	202225	17.61	4.94893e-10
3	203423	17.71	4.82814e-10
3	204621	17.81	4.6434e-10
3	205819	17.91	4.40892e-10
3	207029	18.01	4.13536e-10
3	208227	18.11	3.83693e-10
3	209425	18.21	3.51719e-10
3	210623	18.31	3.19744e-10
3	211821	18.41	2.8777e-10
3	213019	18.51	2.55795e-10
3	214217	18.61	2.25953e-10
3	215415	18.71	1.97531e-10
3	216613	18.81	1.6982e-10
3	217811	18.91	1.44951e-10
3	219021	19.01	1.21503e-10
3	220219	19.11	1.00187e-10
3	221417	19.21	8.10019e-11
3	222615	19.31	6.32383e-11
3	223813	19.41	4.86722e-11
3	225011	19.51	3.44613e-11
3	226209	19.61	2.34479e-11
3	227407	19.71	1.27898e-11
3	228605	19.81	4.9738e-12
3	229803	19.91	-2.13163e-12
3	231013	20.01	-8.17124e-12
3	232211	20.11	-1.1724e-11
3	233409	20.21	-1.52767e-11
3	234607	20.31	-1.88294e-11
3	235805	20.41	-2.02505e-11
3	237003	20.51	-2.02505e-11
3	238201	20.61	-2.02505e-11
3	239399	20.71	-2.02505e-11
3	240597	20.81	-2.02505e-11
3	241795	20.91	-2.02505e-11
3	243005	21.01	-2.02505e-11
3	244203	21.11	-2.02505e-11
3	245401	21.21	-2.02505e-11
3	246599	21.31	-1.88294e-11
3	247797	21.41	-1.7053e-11
3	248995	21.51	-1.52767e-11
3	250193	21.61	-1.38556e-11
3	251391	21.71	-1.24345e-11
3	252589	21.81	-1.13687e-11
3	253787	21.91	-1.03029e-11
3	254997	22.01	-9.23706e-12
3	256195	22.11	-8.52651e-12
3	257393	22.21	-7.4607e-12
3	258591	22.31	-6.75016e-12
3	259789	22.41	-6.03961e-12
3	260987	22.51	-5.68434e-12
3	262185	22.61	-4.9738e-12
3	263383	22.71	-4.61853e-12
3	264581	22.81	-4.26326e-12
3	265779	22.91	-3.90799e-12
3	266989	23.01	-3.55271e-12
3	268187	23.11	-3.19744e-12
3	269385	23.21	-2.84217e-12
3	270583	23.31	-2.4869e-12
3	271781	23.41	-2.13163e-12
3	272979	23.51	-2.13163e-12
3	274177	23.61	-1.77636e-12
3	275375	23.71	-1.77636e-12
3	276573	23.81	-1.42109e-12
3	277771	23.91	-1.42109e-12
3	278981	24.01	-1.06581e-12
3	280179	24.11	-1.06581e-12
3	281377	24.21	-1.06581e-12
3	282575	24.31	-1.06581e-12
3	283773	24.41	-7.10543e-13
3	284971	24.51	-7.10543e-13
3	286169	24.61	-7.10543e-13
3	287367	24.71	-7.10543e-13
3	288565	24.81	-7.10543e-13
3	289763	24.91	-3.55271e-13
3	290973	25.01	-3.55271e-13
3	292171	25.11	-3.55271e-13
3	293369	25.21	-3.55271e-13
3	294567	25.31	-3.55271e-13
3	295765	25.41	-3.55271e-13
3	296963	25.51	-3.55271e-13
3	298161	25.61	-3.55271e-13
3	299359	25.71	-3.55271e-13
3	300557	25.81	-3.55271e-13
3	301755	25.91	0
3	302965	26.01	0
3	304163	26.11	0
3	305361	26.21	0
3	306559	26.31	0
3	307757	26.41	0
3	308955	26.51	0
3	310153	26.61	0
3	311351	26.71	0
3	312549	26.81	0
3	313747	26.91	0
3	314957	27.01	0
3	316155	27.11	0
3	317353	27.21	0
3	318551	27.31	0
3	319749	27.41	0
3	320947	27.51	0
3	322145	27.61	0
3	323343	27.71	0
3	324541	27.81	0
3	325739	27.91	0
3	326949	28.01	0
3	328147	28.11	0
3	329345	28.21	0
3	330543	28.31	0
3	331741	28.41	0
3	332939	28.51	0
3	334137	28.61	0
3	335335	28.71	0
[...]
164	1094236	92	6
164	1106228	93	6
164	1118220	94	6
164	1130212	95	6
164	1142204	96	6
164	1154196	97	6
164	1166188	98	6
164	1178180	99	6
164	1190172	100	6
165	10706	2	0.033081
165	22698	3	0.03745
165	34690	4	0.03745
165	46682	5	0.03745
165	58674	6	0.03745
165	70666	7	0.03745
165	82658	8	0.03745
165	94650	9	0.03745
165	106643	10	0.03745
165	122884	11	0.040362760508
165	134876	12	0.03745
165	146868	13	0.03745
165	158860	14	0.03745
165	170852	15	0.03745
165	182844	16	0.03745
165	194836	17	0.03745
165	206828	18	0.03745
165	218820	19	0.03745
165	230812	20	0.03745
165	242804	21	0.03745
165	254796	22	0.03745
165	266788	23	0.03745
165	278780	24	0.03745
165	290772	25	0.03745
165	302764	26	0.03745
165	314756	27	0.03745
165	326748	28	0.03745
165	338740	29	0.03745
165	350732	30	0.03745
165	362724	31	0.03745
165	374716	32	0.03745
165	386708	33	0.03745
165	398700	34	0.03745
165	410692	35	0.03745
165	422684	36	0.03745
165	434676	37	0.03745
165	446668	38	0.03745
165	458660	39	0.03745
165	470652	40	0.03745
165	482644	41	0.03745
165	494636	42	0.03745
165	506628	43	0.03745
165	518620	44	0.03745
165	530612	45	0.03745
165	542604	46	0.03745
165	554596	47	0.03745
165	566588	48	0.03745
165	578580	49	0.03745
165	590572	50	0.03745
165	602564	51	0.03745
165	614556	52	0.03745
165	626548	53	0.03745
165	638540	54	0.03745
165	650532	55	0.03745
165	662524	56	0.03745
165	674516	57	0.03745
165	686508	58	0.03745
165	698500	59	0.03745
165	710492	60	0.03745
165	722484	61	0.03745
165	734476	62	0.03745
165	746468	63	0.03745
165	758460	64	0.03745
165	770452	65	0.03745
165	782444	66	0.03745
165	794436	67	0.03745
165	806428	68	0.03745
165	818420	69	0.03745
165	830412	70	0.03745
165	842404	71	0.03745
165	854396	72	0.03745
165	866388	73	0.03745
165	878380	74	0.03745
165	890372	75	0.03745
165	902364	76	0.03745
165	914356	77	0.03745
165	926348	78	0.03745
165	938340	79	0.03745
165	950332	80	0.03745
165	962324	81	0.03745
165	974316	82	0.03745
165	986308	83	0.03745
165	998300	84	0.03745
165	1010292	85	0.03745
165	1022284	86	0.03745
165	1034276	87	0.03745
165	1046268	88	0.03745
165	1058260	89	0.03745
165	1070252	90	0.03745
165	1082244	91	0.03745
165	1094236	92	0.03745
165	1106228	93	0.03745
165	1118220	94	0.03745
165	1130212	95	0.03745
165	1142204	96	0.03745
165	1154196	97	0.03745
165	1166188	98	0.03745
165	1178180	99	0.03745
165	1190172	100	0.03745
166	10706	2	0
166	22698	3	0
166	34690	4	0
166	46682	5	0
166	58674	6	0
166	70666	7	0
166	82658	8	0
166	94650	9	0
166	106643	10	0
166	122884	11	0
166	134876	12	0
166	146868	13	0
166	158860	14	0
166	170852	15	0
166	182844	16	0
166	194836	17	0
166	206828	18	0
166	218820	19	0
166	230812	20	0
166	242804	21	0
166	254796	22	0
166	266788	23	0
166	278780	24	0
166	290772	25	0
166	302764	26	0
166	314756	27	0
166	326748	28	0
166	338740	29	0
166	350732	30	0
166	362724	31	0
166	374716	32	0
166	386708	33	0
166	398700	34	0
166	410692	35	0
166	422684	36	0
166	434676	37	0
166	446668	38	0
166	458660	39	0
166	470652	40	0
166	482644	41	0
166	494636	42	0
166	506628	43	0
166	518620	44	0
166	530612	45	0
166	542604	46	0
166	554596	47	0
166	566588	48	0
166	578580	49	0
166	590572	50	0
166	602564	51	0
166	614556	52	0
166	626548	53	0
166	638540	54	0
166	650532	55	0
166	662524	56	0
166	674516	57	0
166	686508	58	0
166	698500	59	0
166	710492	60	0
166	722484	61	0
166	734476	62	0
166	746468	63	0
166	758460	64	0
166	770452	65	0
166	782444	66	0
166	794436	67	0
166	806428	68	0
166	818420	69	0
166	830412	70	0
166	842404	71	0
166	854396	72	0
166	866388	73	0
166	878380	74	0
166	890372	75	0
166	902364	76	0
166	914356	77	0
166	926348	78	0
166	938340	79	0
166	950332	80	0
166	962324	81	0
166	974316	82	0
166	986308	83	0
166	998300	84	0
166	1010292	85	0
166	1022284	86	0
166	1034276	87	0
166	1046268	88	0
166	1058260	89	0
166	1070252	90	0
166	1082244	91	0
166	1094236	92	0
166	1106228	93	0
166	1118220	94	0
166	1130212	95	0
166	1142204	96	0
166	1154196	97	0
166	1166188	98	0
166	1178180	99	0
166	1190172	100	0
167	10707	2	7
167	22699	3	7
167	34691	4	7
167	46683	5	7
167	58675	6	7
167	70667	7	7
167	82659	8	7
167	94651	9	7
167	106644	10	7
167	122885	11	7
167	134877	12	7
167	146869	13	7
167	158861	14	7
167	170853	15	7
167	182845	16	7
167	194837	17	7
167	206829	18	7
167	218821	19	7
167	230813	20	7
167	242805	21	7
167	254797	22	7
167	266789	23	7
167	278781	24	7
167	290773	25	7
167	302765	26	7
167	314757	27	7
167	326749	28	7
167	338741	29	7
167	350733	30	7
167	362725	31	7
167	374717	32	7
167	386709	33	7
167	398701	34	7
167	410693	35	7
167	422685	36	7
167	434677	37	7
167	446669	38	7
167	458661	39	7
167	470653	40	7
167	482645	41	7
167	494637	42	7
167	506629	43	7
167	518621	44	7
167	530613	45	7
167	542605	46	7
167	554597	47	7
167	566589	48	7
167	578581	49	7
167	590573	50	7
167	602565	51	7
167	614557	52	7
167	626549	53	7
167	638541	54	7
167	650533	55	7
167	662525	56	7
167	674517	57	7
167	686509	58	7
167	698501	59	7
167	710493	60	7
167	722485	61	7
167	734477	62	7
167	746469	63	7
167	758461	64	7
167	770453	65	7
167	782445	66	7
167	794437	67	7
167	806429	68	7
167	818421	69	7
167	830413	70	7
167	842405	71	7
167	854397	72	7
167	866389	73	7
167	878381	74	7
167	890373	75	7
167	902365	76	7
167	914357	77	7
167	926349	78	7
167	938341	79	7
167	950333	80	7
167	962325	81	7
167	974317	82	7
167	986309	83	7
167	998301	84	7
167	1010293	85	7
167	1022285	86	7
167	1034277	87	7
167	1046269	88	7
167	1058261	89	7
167	1070253	90	7
167	1082245	91	7
167	1094237	92	7
167	1106229	93	7
167	1118221	94	7
167	1130213	95	7
167	1142205	96	7
167	1154197	97	7
167	1166189	98	7
167	1178181	99	7
167	1190173	100	7
168	10707	2	0.033081
168	22699	3	0.03745
168	34691	4	0.03745
168	46683	5	0.03745
168	58675	6	0.03745
168	70667	7	0.03745
168	82659	8	0.03745
168	94651	9	0.03745
168	106644	10	0.03745
168	122885	11	0.040448760508
168	134877	12	0.03745
168	146869	13	0.03745
168	158861	14	0.03745
168	170853	15	0.03745
168	182845	16	0.03745
168	194837	17	0.03745
168	206829	18	0.03745
168	218821	19	0.03745
168	230813	20	0.03745
168	242805	21	0.03745
168	254797	22	0.03745
168	266789	23	0.03745
168	278781	24	0.03745
168	290773	25	0.03745
168	302765	26	0.03745
168	314757	27	0.03745
168	326749	28	0.03745
168	338741	29	0.03745
168	350733	30	0.03745
168	362725	31	0.03745
168	374717	32	0.03745
168	386709	33	0.03745
168	398701	34	0.03745
168	410693	35	0.03745
168	422685	36	0.03745
168	434677	37	0.03745
168	446669	38	0.03745
168	458661	39	0.03745
168	470653	40	0.03745
168	482645	41	0.03745
168	494637	42	0.03745
168	506629	43	0.03745
168	518621	44	0.03745
168	530613	45	0.03745
168	542605	46	0.03745
168	554597	47	0.03745
168	566589	48	0.03745
168	578581	49	0.03745
168	590573	50	0.03745
168	602565	51	0.03745
168	614557	52	0.03745
168	626549	53	0.03745
168	638541	54	0.03745
168	650533	55	0.03745
168	662525	56	0.03745
168	674517	57	0.03745
168	686509	58	0.03745
168	698501	59	0.03745
168	710493	60	0.03745
168	722485	61	0.03745
168	734477	62	0.03745
168	746469	63	0.03745
168	758461	64	0.03745
168	770453	65	0.03745
168	782445	66	0.03745
168	794437	67	0.03745
168	806429	68	0.03745
168	818421	69	0.03745
168	830413	70	0.03745
168	842405	71	0.03745
168	854397	72	0.03745
168	866389	73	0.03745
168	878381	74	0.03745
168	890373	75	0.03745
168	902365	76	0.03745
168	914357	77	0.03745
168	926349	78	0.03745
168	938341	79	0.03745
168	950333	80	0.03745
168	962325	81	0.03745
168	974317	82	0.03745
168	986309	83	0.03745
168	998301	84	0.03745
168	1010293	85	0.03745
168	1022285	86	0.03745
168	1034277	87	0.03745
168	1046269	88	0.03745
168	1058261	89	0.03745
168	1070253	90	0.03745
168	1082245	91	0.03745
168	1094237	92	0.03745
168	1106229	93	0.03745
168	1118221	94	0.03745
168	1130213	95	0.03745
168	1142205	96	0.03745
168	1154197	97	0.03745
168	1166189	98	0.03745
168	1178181	99	0.03745
168	1190173	100	0.03745
169	10707	2	0
169	22699	3	0
169	34691	4	0
169	46683	5	0
169	58675	6	0
169	70667	7	0
169	82659	8	0
169	94651	9	0
169	106644	10	0
169	122885	11	0
169	134877	12	0
169	146869	13	0
169	158861	14	0
169	170853	15	0
169	182845	16	0
169	194837	17	0
169	206829	18	0
169	218821	19	0
169	230813	20	0
169	242805	21	0
169	254797	22	0
169	266789	23	0
169	278781	24	0
169	290773	25	0
169	302765	26	0
169	314757	27	0
169	326749	28	0
169	338741	29	0
169	350733	30	0
169	362725	31	0
169	374717	32	0
169	386709	33	0
169	398701	34	0
169	410693	35	0
169	422685	36	0
169	434677	37	0
169	446669	38	0
169	458661	39	0
169	470653	40	0
169	482645	41	0
169	494637	42	0
169	506629	43	0
169	518621	44	0
169	530613	45	0
169	542605	46	0
169	554597	47	0
169	566589	48	0
169	578581	49	0
169	590573	50	0
169	602565	51	0
169	614557	52	0
169	626549	53	0
169	638541	54	0
169	650533	55	0
169	662525	56	0
169	674517	57	0
169	686509	58	0
169	698501	59	0
169	710493	60	0
169	722485	61	0
169	734477	62	0
169	746469	63	0
169	758461	64	0
169	770453	65	0
169	782445	66	0
169	794437	67	0
169	806429	68	0
169	818421	69	0
169	830413	70	0
169	842405	71	0
169	854397	72	0
169	866389	73	0
169	878381	74	0
169	890373	75	0
169	902365	76	0
169	914357	77	0
169	926349	78	0
169	938341	79	0
169	950333	80	0
169	962325	81	0
169	974317	82	0
169	986309	83	0
169	998301	84	0
169	1010293	85	0
169	1022285	86	0
169	1034277	87	0
169	1046269	88	0
169	1058261	89	0
169	1070253	90	0
169	1082245	91	0
169	1094237	92	0
169	1106229	93	0
169	1118221	94	0
169	1130213	95	0
169	1142205	96	0
169	1154197	97	0
169	1166189	98	0
169	1178181	99	0
169	1190173	100	0
170	10708	2	8
170	22700	3	8
170	34692	4	8
170	46684	5	8
170	58676	6	8
170	70668	7	8
170	82660	8	8
170	94652	9	8
170	106645	10	8
170	122886	11	8
170	134878	12	8
170	146870	13	8
170	158862	14	8
170	170854	15	8
170	182846	16	8
170	194838	17	8
170	206830	18	8
170	218822	19	8
170	230814	20	8
170	242806	21	8
170	254798	22	8
170	266790	23	8
170	278782	24	8
170	290774	25	8
170	302766	26	8
170	314758	27	8
170	326750	28	8
170	338742	29	8
170	350734	30	8
170	362726	31	8
170	374718	32	8
170	386710	33	8
170	398702	34	8
170	410694	35	8
170	422686	36	8
170	434678	37	8
170	446670	38	8
170	458662	39	8
170	470654	40	8
170	482646	41	8
170	494638	42	8
170	506630	43	8
170	518622	44	8
170	530614	45	8
170	542606	46	8
170	554598	47	8
170	566590	48	8
170	578582	49	8
170	590574	50	8
170	602566	51	8
170	614558	52	8
170	626550	53	8
170	638542	54	8
170	650534	55	8
170	662526	56	8
170	674518	57	8
170	686510	58	8
170	698502	59	8
170	710494	60	8
170	722486	61	8
170	734478	62	8
170	746470	63	8
170	758462	64	8
170	770454	65	8
170	782446	66	8
170	794438	67	8
170	806430	68	8
170	818422	69	8
170	830414	70	8
170	842406	71	8
170	854398	72	8
170	866390	73	8
170	878382	74	8
170	890374	75	8
170	902366	76	8
170	914358	77	8
170	926350	78	8
170	938342	79	8
170	950334	80	8
170	962326	81	8
170	974318	82	8
170	986310	83	8
170	998302	84	8
170	1010294	85	8
170	1022286	86	8
170	1034278	87	8
170	1046270	88	8
170	1058262	89	8
170	1070254	90	8
170	1082246	91	8
170	1094238	92	8
170	1106230	93	8
170	1118222	94	8
170	1130214	95	8
170	1142206	96	8
170	1154198	97	8
170	1166190	98	8
170	1178182	99	8
170	1190174	100	8
171	10708	2	0.03308
171	22700	3	0.03745
171	34692	4	0.03745
171	46684	5	0.03745
171	58676	6	0.03745
171	70668	7	0.03745
171	82660	8	0.03745
171	94652	9	0.03745
171	106645	10	0.03745
171	122886	11	0.040508840562
171	134878	12	0.03745
171	146870	13	0.03745
171	158862	14	0.03745
171	170854	15	0.03745
171	182846	16	0.03745
171	194838	17	0.03745
171	206830	18	0.03745
171	218822	19	0.03745
171	230814	20	0.03745
171	242806	21	0.03745
171	254798	22	0.03745
171	266790	23	0.03745
171	278782	24	0.03745
171	290774	25	0.03745
171	302766	26	0.03745
171	314758	27	0.03745
171	326750	28	0.03745
171	338742	29	0.03745
171	350734	30	0.03745
171	362726	31	0.03745
171	374718	32	0.03745
171	386710	33	0.03745
171	398702	34	0.03745
171	410694	35	0.03745
171	422686	36	0.03745
171	434678	37	0.03745
171	446670	38	0.03745
171	458662	39	0.03745
171	470654	40	0.03745
171	482646	41	0.03745
171	494638	42	0.03745
171	506630	43	0.03745
171	518622	44	0.03745
171	530614	45	0.03745
171	542606	46	0.03745
171	554598	47	0.03745
171	566590	48	0.03745
171	578582	49	0.03745
171	590574	50	0.03745
171	602566	51	0.03745
171	614558	52	0.03745
171	626550	53	0.03745
171	638542	54	0.03745
171	650534	55	0.03745
171	662526	56	0.03745
171	674518	57	0.03745
171	686510	58	0.03745
171	698502	59	0.03745
171	710494	60	0.03745
171	722486	61	0.03745
171	734478	62	0.03745
171	746470	63	0.03745
171	758462	64	0.03745
171	770454	65	0.03745
171	782446	66	0.03745
171	794438	67	0.03745
171	806430	68	0.03745
171	818422	69	0.03745
171	830414	70	0.03745
171	842406	71	0.03745
171	854398	72	0.03745
171	866390	73	0.03745
171	878382	74	0.03745
171	890374	75	0.03745
171	902366	76	0.03745
171	914358	77	0.03745
171	926350	78	0.03745
171	938342	79	0.03745
171	950334	80	0.03745
171	962326	81	0.03745
171	974318	82	0.03745
171	986310	83	0.03745
171	998302	84	0.03745
171	1010294	85	0.03745
171	1022286	86	0.03745
171	1034278	87	0.03745
171	1046270	88	0.03745
171	1058262	89	0.03745
171	1070254	90	0.03745
171	1082246	91	0.03745
171	1094238	92	0.03745
171	1106230	93	0.03745
171	1118222	94	0.03745
171	1130214	95	0.03745
171	1142206	96	0.03745
171	1154198	97	0.03745
171	1166190	98	0.03745
171	1178182	99	0.03745
171	1190174	100	0.03745
172	10708	2	0
172	22700	3	0
172	34692	4	0
172	46684	5	0
172	58676	6	0
172	70668	7	0
172	82660	8	0
172	94652	9	0
172	106645	10	0
172	122886	11	0
172	134878	12	0
172	146870	13	0
172	158862	14	0
172	170854	15	0
172	182846	16	0
172	194838	17	0
172	206830	18	0
172	218822	19	0
172	230814	20	0
172	242806	21	0
172	254798	22	0
172	266790	23	0
172	278782	24	0
172	290774	25	0
172	302766	26	0
172	314758	27	0
172	326750	28	0
172	338742	29	0
172	350734	30	0
172	362726	31	0
172	374718	32	0
172	386710	33	0
172	398702	34	0
172	410694	35	0
172	422686	36	0
172	434678	37	0
172	446670	38	0
172	458662	39	0
172	470654	40	0
172	482646	41	0
172	494638	42	0
172	506630	43	0
172	518622	44	0
172	530614	45	0
172	542606	46	0
172	554598	47	0
172	566590	48	0
172	578582	49	0
172	590574	50	0
172	602566	51	0
172	614558	52	0
172	626550	53	0
172	638542	54	0
172	650534	55	0
172	662526	56	0
172	674518	57	0
172	686510	58	0
172	698502	59	0
172	710494	60	0
172	722486	61	0
172	734478	62	0
172	746470	63	0
172	758462	64	0
172	770454	65	0
172	782446	66	0
172	794438	67	0
172	806430	68	0
172	818422	69	0
172	830414	70	0
172	842406	71	0
172	854398	72	0
172	866390	73	0
172	878382	74	0
172	890374	75	0
172	902366	76	0
172	914358	77	0
172	926350	78	0
172	938342	79	0
172	950334	80	0
172	962326	81	0
172	974318	82	0
172	986310	83	0
172	998302	84	0
172	1010294	85	0
172	1022286	86	0
172	1034278	87	0
172	1046270	88	0
172	1058262	89	0
172	1070254	90	0
172	1082246	91	0
172	1094238	92	0
172	1106230	93	0
172	1118222	94	0
172	1130214	95	0
172	1142206	96	0
172	1154198	97	0
172	1166190	98	0
172	1178182	99	0
172	1190174	100	0
173	10709	2	9
173	22701	3	9
173	34693	4	9
173	46685	5	9
173	58677	6	9
173	70669	7	9
173	82661	8	9
173	94653	9	9
173	106646	10	9
173	122887	11	9
173	134879	12	9
173	146871	13	9
173	158863	14	9
173	170855	15	9
173	182847	16	9
173	194839	17	9
173	206831	18	9
173	218823	19	9
173	230815	20	9
173	242807	21	9
173	254799	22	9
173	266791	23	9
173	278783	24	9
173	290775	25	9
173	302767	26	9
173	314759	27	9
173	326751	28	9
173	338743	29	9
173	350735	30	9
173	362727	31	9
173	374719	32	9
173	386711	33	9
173	398703	34	9
173	410695	35	9
173	422687	36	9
173	434679	37	9
173	446671	38	9
173	458663	39	9
173	470655	40	9
173	482647	41	9
173	494639	42	9
173	506631	43	9
173	518623	44	9
173	530615	45	9
173	542607	46	9
173	554599	47	9
173	566591	48	9
173	578583	49	9
173	590575	50	9
173	602567	51	9
173	614559	52	9
173	626551	53	9
173	638543	54	9
173	650535	55	9
173	662527	56	9
173	674519	57	9
173	686511	58	9
173	698503	59	9
173	710495	60	9
173	722487	61	9
173	734479	62	9
173	746471	63	9
173	758463	64	9
173	770455	65	9
173	782447	66	9
173	794439	67	9
173	806431	68	9
173	818423	69	9
173	830415	70	9
173	842407	71	9
173	854399	72	9
173	866391	73	9
173	878383	74	9
173	890375	75	9
173	902367	76	9
173	914359	77	9
173	926351	78	9
173	938343	79	9
173	950335	80	9
173	962327	81	9
173	974319	82	9
173	986311	83	9
173	998303	84	9
173	1010295	85	9
173	1022287	86	9
173	1034279	87	9
173	1046271	88	9
173	1058263	89	9
173	1070255	90	9
173	1082247	91	9
173	1094239	92	9
173	1106231	93	9
173	1118223	94	9
173	1130215	95	9
173	1142207	96	9
173	1154199	97	9
173	1166191	98	9
173	1178183	99	9
173	1190175	100	9
174	10709	2	0.03308
174	22701	3	0.03745
174	34693	4	0.03745
174	46685	5	0.03745
174	58677	6	0.03745
174	70669	7	0.03745
174	82661	8	0.03745
174	94653	9	0.03745
174	106646	10	0.03745
174	122887	11	0.040521800536
174	134879	12	0.03745
174	146871	13	0.03745
174	158863	14	0.03745
174	170855	15	0.03745
174	182847	16	0.03745
174	194839	17	0.03745
174	206831	18	0.03745
174	218823	19	0.03745
174	230815	20	0.03745
174	242807	21	0.03745
174	254799	22	0.03745
174	266791	23	0.03745
174	278783	24	0.03745
174	290775	25	0.03745
174	302767	26	0.03745
174	314759	27	0.03745
174	326751	28	0.03745
174	338743	29	0.03745
174	350735	30	0.03745
174	362727	31	0.03745
174	374719	32	0.03745
174	386711	33	0.03745
174	398703	34	0.03745
174	410695	35	0.03745
174	422687	36	0.03745
174	434679	37	0.03745
174	446671	38	0.03745
174	458663	39	0.03745
174	470655	40	0.03745
174	482647	41	0.03745
174	494639	42	0.03745
174	506631	43	0.03745
174	518623	44	0.03745
174	530615	45	0.03745
174	542607	46	0.03745
174	554599	47	0.03745
174	566591	48	0.03745
174	578583	49	0.03745
174	590575	50	0.03745
174	602567	51	0.03745
174	614559	52	0.03745
174	626551	53	0.03745
174	638543	54	0.03745
174	650535	55	0.03745
174	662527	56	0.03745
174	674519	57	0.03745
174	686511	58	0.03745
174	698503	59	0.03745
174	710495	60	0.03745
174	722487	61	0.03745
174	734479	62	0.03745
174	746471	63	0.03745
174	758463	64	0.03745
174	770455	65	0.03745
174	782447	66	0.03745
174	794439	67	0.03745
174	806431	68	0.03745
174	818423	69	0.03745
174	830415	70	0.03745
174	842407	71	0.03745
174	854399	72	0.03745
174	866391	73	0.03745
174	878383	74	0.03745
174	890375	75	0.03745
174	902367	76	0.03745
174	914359	77	0.03745
174	926351	78	0.03745
174	938343	79	0.03745
174	950335	80	0.03745
174	962327	81	0.03745
174	974319	82	0.03745
174	986311	83	0.03745
174	998303	84	0.03745
174	1010295	85	0.03745
174	1022287	86	0.03745
174	1034279	87	0.03745
174	1046271	88	0.03745
174	1058263	89	0.03745
174	1070255	90	0.03745
174	1082247	91	0.03745
174	1094239	92	0.03745
174	1106231	93	0.03745
174	1118223	94	0.03745
174	1130215	95	0.03745
174	1142207	96	0.03745
174	1154199	97	0.03745
174	1166191	98	0.03745
174	1178183	99	0.03745
174	1190175	100	0.03745
175	10709	2	0
175	22701	3	0
175	34693	4	0
175	46685	5	0
175	58677	6	0
175	70669	7	0
175	82661	8	0
175	94653	9	0
175	106646	10	0
175	122887	11	0
175	134879	12	0
175	146871	13	0
175	158863	14	0
175	170855	15	0
175	182847	16	0
175	194839	17	0
175	206831	18	0
175	218823	19	0
175	230815	20	0
175	242807	21	0
175	254799	22	0
175	266791	23	0
175	278783	24	0
175	290775	25	0
175	302767	26	0
175	314759	27	0
175	326751	28	0
175	338743	29	0
175	350735	30	0
175	362727	31	0
175	374719	32	0
175	386711	33	0
175	398703	34	0
175	410695	35	0
175	422687	36	0
175	434679	37	0
175	446671	38	0
175	458663	39	0
175	470655	40	0
175	482647	41	0
175	494639	42	0
175	506631	43	0
175	518623	44	0
175	530615	45	0
175	542607	46	0
175	554599	47	0
175	566591	48	0
175	578583	49	0
175	590575	50	0
175	602567	51	0
175	614559	52	0
175	626551	53	0
175	638543	54	0
175	650535	55	0
175	662527	56	0
175	674519	57	0
175	686511	58	0
175	698503	59	0
175	710495	60	0
175	722487	61	0
175	734479	62	0
175	746471	63	0
175	758463	64	0
175	770455	65	0
175	782447	66	0
175	794439	67	0
175	806431	68	0
175	818423	69	0
175	830415	70	0
175	842407	71	0
175	854399	72	0
175	866391	73	0
175	878383	74	0
175	890375	75	0
175	902367	76	0
175	914359	77	0
175	926351	78	0
175	938343	79	0
175	950335	80	0
175	962327	81	0
175	974319	82	0
175	986311	83	0
175	998303	84	0
175	1010295	85	0
175	1022287	86	0
175	1034279	87	0
175	1046271	88	0
175	1058263	89	0
175	1070255	90	0
175	1082247	91	0
175	1094239	92	0
175	1106231	93	0
175	1118223	94	0
175	1130215	95	0
175	1142207	96	0
175	1154199	97	0
175	1166191	98	0
175	1178183	99	0
175	1190175	100	0

