version 3
run BreakRanksNoGui-26-20240708-17:38:54-154633
attr configname BreakRanksNoGui
attr datetime 20240708-17:38:54
attr datetimef 20240708-173854
attr experiment BreakRanksNoGui
attr inifile omnetpp.ini
attr iterationvars "$nCars=8, $platoonSize=8, $nLanes=1, $ploegH=0.5, $controller=1, $headway=0.1, $leaderHeadway=1.2, $leaderSpeed=110, $breakRanksSafetyDistance=2, $minSpeed=100, $maxSpeed=120, $beaconInterval=0.1, $priority=4, $packetSize=200, $sController=\"CACC\", $0=2, $1=0"
attr iterationvarsd nCars=8/platoonSize=8/nLanes=1/ploegH=0.5/controller=1/headway=0.1/leaderHeadway=1.2/leaderSpeed=110/breakRanksSafetyDistance=2/minSpeed=100/maxSpeed=120/beaconInterval=0.1/priority=4/packetSize=200/sController=CACC/2/0
attr iterationvarsf nCars=8,platoonSize=8,nLanes=1,ploegH=0.5,controller=1,headway=0.1,leaderHeadway=1.2,leaderSpeed=110,breakRanksSafetyDistance=2,minSpeed=100,maxSpeed=120,beaconInterval=0.1,priority=4,packetSize=200,sController=CACC,2,0-
attr measurement "$nCars=8, $platoonSize=8, $nLanes=1, $ploegH=0.5, $controller=1, $headway=0.1, $leaderHeadway=1.2, $leaderSpeed=110, $breakRanksSafetyDistance=2, $minSpeed=100, $maxSpeed=120, $beaconInterval=0.1, $priority=4, $packetSize=200, $sController=\"CACC\", $0=2, $1=0"
attr network Highway
attr processid 154633
attr repetition 6
attr replication #6
attr resultdir results
attr runnumber 26
attr seedset 6
itervar beaconInterval 0.1
itervar breakRanksSafetyDistance 2
itervar controller 1
itervar headway 0.1
itervar leaderHeadway 1.2
itervar leaderSpeed 110
itervar maxSpeed 120
itervar minSpeed 100
itervar nCars 8
itervar nLanes 1
itervar packetSize 200
itervar platoonSize 8
itervar ploegH 0.5
itervar priority 4
itervar sController "\"CACC\""
config image-path ../../../veins/images
config repeat 10
config extends BreakRanks
config *.manager.command "\"sumo\""
config *.manager.ignoreGuiCommands true
config output-vector-file results/BreakRanks_1_0.1_110_2/result_6.vec
config output-scalar-file results/BreakRanks_1_0.1_110_2/result_6.sca
config extends Platooning
config *.node[*].scenario_type "\"BreakRanksScenario\""
config *.manager.command "\"sumo-gui\""
config *.node[*].scenario_type "\"SimpleScenario\""
config cmdenv-express-mode true
config cmdenv-autoflush true
config cmdenv-status-frequency 15s
config num-rngs 6
config network Highway
config debug-on-errors true
config print-undisposed true
config *.playgroundSizeX 65000m
config *.playgroundSizeY 25000m
config *.playgroundSizeZ 50m
config sim-time-limit "100 s"
config *.annotations.draw false
config *.obstacles.debug false
config *.world.useTorus false
config *.world.use2D false
config *.manager.updateInterval 0.01s
config *.manager.host "\"localhost\""
config *.manager.moduleType "\"org.car2x.plexe.PlatoonCar\""
config *.manager.moduleName "\"node\""
config *.manager.moduleDisplayString "\"\""
config *.manager.autoShutdown true
config *.manager.margin 25
config *.connectionManager.sendDirect true
config *.connectionManager.maxInterfDist 2600m
config *.connectionManager.drawMaxIntfDist false
config *.**.nic.mac1609_4.useServiceChannel false
config *.**.nic.mac1609_4.txPower 100mW
config *.**.nic.mac1609_4.bitrate 6Mbps
config *.**.nic.mac1609_4.useAcks true
config *.**.nic.mac1609_4.ackErrorRate 0.0
config *.**.nic.mac1609_4.frameErrorRate 0.0
config *.**.nic.phy80211p.minPowerLevel -94dBm
config *.**.nic.phy80211p.maxTXPower 100mW
config *.**.nic.phy80211p.useNoiseFloor true
config *.**.nic.phy80211p.noiseFloor -95dBm
config *.**.nic.phy80211p.decider "xmldoc(\"config.xml\")"
config *.**.nic.phy80211p.analogueModels "xmldoc(\"config.xml\")"
config *.**.nic.phy80211p.usePropagationDelay true
config *.node[*].mobility.x 0
config *.node[*].mobility.y 0
config *.node[*].mobility.z 1.895
config seed-set 6
config **.seed 6
config *.node[*].prot.rng-0 2
config *.node[*].appl.rng-0 3
config *.node[*].scenario.rng-0 4
config **.traffic.rng-0 5
config *.manager.configFile "\"./sumocfg/freeway.sumo.cfg\""
config *.manager.launchConfig "xmldoc(\"./sumocfg/freeway.launchd.xml\")"
config **.numberOfCars 8
config **.numberOfCarsPerPlatoon 8
config **.numberOfLanes 1
config *.node[*].helper_type "\"PositionHelper\""
config *.node[*].scenario.caccC1 0.5
config *.node[*].scenario.caccXi 1
config *.node[*].scenario.caccOmegaN "0.2 Hz"
config *.node[*].scenario.caccSpacing "2 m"
config *.node[*].scenario.engineTau "0.5 s"
config *.node[*].scenario.ploegH 0.5s
config *.node[*].scenario.ploegKp 0.2
config *.node[*].scenario.ploegKd 0.7
config *.node[*].scenario.useRealisticEngine false
config *.node[*].scenario.useControllerAcceleration true
config *.node[*].scenario.nLanes 1
config **.numericController 1
config **.headway 0.1s
config *.node[*].scenario.accHeadway 0.1s
config *.node[*].scenario.leaderHeadway 1.2s
config *.node[*].scenario.leaderSpeed 110kmph
config *.node[*].appl_type "\"SimplePlatooningApp\""
config *.node[*].appl.*.scalar-recording true
config *.node[*].appl.*.vector-recording true
config *.node[0].appl.breakRanksSafetyDistance 2m
config *.node[*].appl.minSpeed 100kmph
config *.node[*].appl.maxSpeed 120kmph
config *.node[*].protocol_type "\"SimplePlatooningBeaconing\""
config *.node[*].prot.*.scalar-recording true
config *.node[*].prot.*.vector-recording true
config *.node[*].prot.beaconingInterval 0.1s
config *.node[*].prot.priority 4
config *.node[*].prot.packetSize 200
config **.traffic_type "\"PlatoonsTrafficManager\""
config **.traffic.platoonInsertTime "1 s"
config **.traffic.platoonInsertSpeed 110kmph
config **.traffic.nCars 8
config **.traffic.platoonSize 8
config **.traffic.nLanes 1
config **.traffic.platooningVType "\"vtypeauto\""
config **.traffic.controller "\"CACC\""
config **.traffic.platoonInsertDistance 2m
config **.traffic.platoonInsertHeadway 0s
config **.traffic.platoonLeaderHeadway 1.2s
config **.scalar-recording false
config **.vector-recording false
config output-vector-file results/BreakRanksNoGui_1_0.1_110_2/result_6.vec
config output-scalar-file results/BreakRanksNoGui_1_0.1_110_2/result_6.sca

vector 0 Highway.node[0].appl distance ETV
vector 1 Highway.node[0].appl relativeSpeed ETV
vector 2 Highway.node[0].appl nodeId ETV
vector 3 Highway.node[0].appl acceleration ETV
vector 4 Highway.node[0].appl controllerAcceleration ETV
vector 5 Highway.node[0].appl speed ETV
vector 6 Highway.node[0].appl posx ETV
vector 7 Highway.node[0].appl posy ETV
vector 8 Highway.node[1].appl distance ETV
vector 9 Highway.node[1].appl relativeSpeed ETV
vector 10 Highway.node[1].appl nodeId ETV
vector 11 Highway.node[1].appl acceleration ETV
vector 12 Highway.node[1].appl controllerAcceleration ETV
vector 13 Highway.node[1].appl speed ETV
vector 14 Highway.node[1].appl posx ETV
vector 15 Highway.node[1].appl posy ETV
vector 16 Highway.node[2].appl distance ETV
vector 17 Highway.node[2].appl relativeSpeed ETV
vector 18 Highway.node[2].appl nodeId ETV
vector 19 Highway.node[2].appl acceleration ETV
vector 20 Highway.node[2].appl controllerAcceleration ETV
vector 21 Highway.node[2].appl speed ETV
vector 22 Highway.node[2].appl posx ETV
vector 23 Highway.node[2].appl posy ETV
vector 24 Highway.node[3].appl distance ETV
vector 25 Highway.node[3].appl relativeSpeed ETV
vector 26 Highway.node[3].appl nodeId ETV
vector 27 Highway.node[3].appl acceleration ETV
vector 28 Highway.node[3].appl controllerAcceleration ETV
vector 29 Highway.node[3].appl speed ETV
vector 30 Highway.node[3].appl posx ETV
vector 31 Highway.node[3].appl posy ETV
vector 32 Highway.node[4].appl distance ETV
vector 33 Highway.node[4].appl relativeSpeed ETV
vector 34 Highway.node[4].appl nodeId ETV
vector 35 Highway.node[4].appl acceleration ETV
vector 36 Highway.node[4].appl controllerAcceleration ETV
vector 37 Highway.node[4].appl speed ETV
vector 38 Highway.node[4].appl posx ETV
vector 39 Highway.node[4].appl posy ETV
vector 40 Highway.node[5].appl distance ETV
vector 41 Highway.node[5].appl relativeSpeed ETV
vector 42 Highway.node[5].appl nodeId ETV
vector 43 Highway.node[5].appl acceleration ETV
vector 44 Highway.node[5].appl controllerAcceleration ETV
vector 45 Highway.node[5].appl speed ETV
vector 46 Highway.node[5].appl posx ETV
vector 47 Highway.node[5].appl posy ETV
vector 48 Highway.node[6].appl distance ETV
vector 49 Highway.node[6].appl relativeSpeed ETV
vector 50 Highway.node[6].appl nodeId ETV
vector 51 Highway.node[6].appl acceleration ETV
vector 52 Highway.node[6].appl controllerAcceleration ETV
vector 53 Highway.node[6].appl speed ETV
vector 54 Highway.node[6].appl posx ETV
vector 55 Highway.node[6].appl posy ETV
vector 56 Highway.node[7].appl distance ETV
vector 57 Highway.node[7].appl relativeSpeed ETV
vector 58 Highway.node[7].appl nodeId ETV
vector 59 Highway.node[7].appl acceleration ETV
vector 60 Highway.node[7].appl controllerAcceleration ETV
vector 61 Highway.node[7].appl speed ETV
vector 62 Highway.node[7].appl posx ETV
vector 63 Highway.node[7].appl posy ETV
vector 64 Highway.node[1].prot leaderDelay ETV
vector 65 Highway.node[1].prot leaderDelayId ETV
vector 66 Highway.node[1].prot frontDelay ETV
vector 67 Highway.node[1].prot frontDelayId ETV
vector 68 Highway.node[2].prot leaderDelay ETV
vector 69 Highway.node[2].prot leaderDelayId ETV
vector 70 Highway.node[3].prot leaderDelay ETV
vector 71 Highway.node[3].prot leaderDelayId ETV
vector 72 Highway.node[4].prot leaderDelay ETV
vector 73 Highway.node[4].prot leaderDelayId ETV
vector 74 Highway.node[5].prot leaderDelay ETV
vector 75 Highway.node[5].prot leaderDelayId ETV
vector 76 Highway.node[6].prot leaderDelay ETV
vector 77 Highway.node[6].prot leaderDelayId ETV
vector 78 Highway.node[7].prot leaderDelay ETV
vector 79 Highway.node[7].prot leaderDelayId ETV
vector 80 Highway.node[7].prot frontDelay ETV
vector 81 Highway.node[7].prot frontDelayId ETV
vector 82 Highway.node[3].prot frontDelay ETV
vector 83 Highway.node[3].prot frontDelayId ETV
vector 84 Highway.node[6].prot frontDelay ETV
vector 85 Highway.node[6].prot frontDelayId ETV
vector 86 Highway.node[2].prot frontDelay ETV
vector 87 Highway.node[2].prot frontDelayId ETV
vector 88 Highway.node[4].prot frontDelay ETV
vector 89 Highway.node[4].prot frontDelayId ETV
vector 90 Highway.node[5].prot frontDelay ETV
vector 91 Highway.node[5].prot frontDelayId ETV
vector 92 Highway.node[0].prot nodeId ETV
vector 93 Highway.node[0].prot busyTime ETV
vector 94 Highway.node[0].prot collisions ETV
vector 95 Highway.node[1].prot nodeId ETV
vector 96 Highway.node[1].prot busyTime ETV
vector 97 Highway.node[1].prot collisions ETV
vector 98 Highway.node[2].prot nodeId ETV
vector 99 Highway.node[2].prot busyTime ETV
vector 100 Highway.node[2].prot collisions ETV
vector 101 Highway.node[3].prot nodeId ETV
vector 102 Highway.node[3].prot busyTime ETV
vector 103 Highway.node[3].prot collisions ETV
vector 104 Highway.node[4].prot nodeId ETV
vector 105 Highway.node[4].prot busyTime ETV
vector 106 Highway.node[4].prot collisions ETV
vector 107 Highway.node[5].prot nodeId ETV
vector 108 Highway.node[5].prot busyTime ETV
vector 109 Highway.node[5].prot collisions ETV
vector 110 Highway.node[6].prot nodeId ETV
vector 111 Highway.node[6].prot busyTime ETV
vector 112 Highway.node[6].prot collisions ETV
vector 113 Highway.node[7].prot nodeId ETV
vector 114 Highway.node[7].prot busyTime ETV
vector 115 Highway.node[7].prot collisions ETV
0	113	1.11	-1
0	659	1.21	-1
0	1205	1.31	-1
0	1751	1.41	-1
0	2297	1.51	-1
0	2843	1.61	-1
0	3389	1.71	-1
0	3935	1.81	-1
0	4481	1.91	-1
0	5035	2.01	-1
0	5581	2.11	-1
0	6127	2.21	-1
0	6673	2.31	-1
0	7219	2.41	-1
0	7765	2.51	-1
0	8311	2.61	-1
0	8857	2.71	-1
0	9403	2.81	-1
0	9949	2.91	-1
0	10503	3.01	-1
0	11049	3.11	-1
0	11595	3.21	-1
0	12141	3.31	-1
0	12687	3.41	-1
0	13233	3.51	-1
0	13779	3.61	-1
0	14325	3.71	-1
0	14871	3.81	-1
0	15417	3.91	-1
0	15971	4.01	-1
0	16517	4.11	-1
0	17063	4.21	-1
0	17609	4.31	-1
0	18155	4.41	-1
0	18701	4.51	-1
0	19247	4.61	-1
0	19793	4.71	-1
0	20339	4.81	-1
0	20885	4.91	-1
0	21439	5.01	-1
0	21985	5.11	-1
0	22531	5.21	-1
0	23077	5.31	-1
0	23623	5.41	-1
0	24169	5.51	-1
0	24715	5.61	-1
0	25261	5.71	-1
0	25807	5.81	-1
0	26353	5.91	-1
0	26907	6.01	-1
0	27453	6.11	-1
0	27999	6.21	-1
0	28545	6.31	-1
0	29091	6.41	-1
0	29637	6.51	-1
0	30183	6.61	-1
0	30729	6.71	-1
0	31275	6.81	-1
0	31821	6.91	-1
0	32375	7.01	-1
0	32921	7.11	-1
0	33467	7.21	-1
0	34013	7.31	-1
0	34559	7.41	-1
0	35105	7.51	-1
0	35651	7.61	-1
0	36197	7.71	-1
0	36743	7.81	-1
0	37289	7.91	-1
0	37843	8.01	-1
0	38389	8.11	-1
0	38935	8.21	-1
0	39481	8.31	-1
0	40027	8.41	-1
0	40573	8.51	-1
0	41119	8.61	-1
0	41665	8.71	-1
0	42211	8.81	-1
0	42757	8.91	-1
0	43311	9.01	-1
0	43857	9.11	-1
0	44403	9.21	-1
0	44949	9.31	-1
0	45495	9.41	-1
0	46041	9.51	-1
0	46587	9.61	-1
0	47133	9.71	-1
0	47679	9.81	-1
0	48225	9.91	-1
0	50642	10.01	-1
0	51188	10.11	-1
0	51734	10.21	-1
0	52280	10.31	-1
0	52826	10.41	-1
0	53372	10.51	-1
0	53918	10.61	-1
0	54464	10.71	-1
0	55010	10.81	-1
0	55556	10.91	-1
0	56110	11.01	-1
0	56656	11.11	-1
0	57202	11.21	-1
0	57748	11.31	-1
0	58294	11.41	-1
0	58840	11.51	-1
0	59386	11.61	-1
0	59932	11.71	-1
0	60478	11.81	-1
0	61024	11.91	-1
0	61578	12.01	-1
0	62124	12.11	-1
0	62670	12.21	-1
0	63216	12.31	-1
0	63762	12.41	-1
0	64308	12.51	-1
0	64854	12.61	-1
0	65400	12.71	-1
0	65946	12.81	-1
0	66492	12.91	-1
0	67046	13.01	-1
0	67592	13.11	-1
0	68138	13.21	-1
0	68684	13.31	-1
0	69230	13.41	-1
0	69776	13.51	-1
0	70322	13.61	-1
0	70868	13.71	-1
0	71414	13.81	-1
0	71960	13.91	-1
0	72514	14.01	-1
0	73060	14.11	-1
0	73606	14.21	-1
0	74152	14.31	-1
0	74698	14.41	-1
0	75244	14.51	-1
0	75790	14.61	-1
0	76336	14.71	-1
0	76882	14.81	-1
0	77428	14.91	-1
0	77982	15.01	-1
0	78528	15.11	-1
0	79074	15.21	-1
0	79620	15.31	-1
0	80166	15.41	-1
0	80712	15.51	-1
0	81258	15.61	-1
0	81804	15.71	-1
0	82350	15.81	-1
0	82896	15.91	-1
0	83450	16.01	-1
0	83996	16.11	-1
0	84542	16.21	-1
0	85088	16.31	-1
0	85634	16.41	-1
0	86180	16.51	-1
0	86726	16.61	-1
0	87272	16.71	-1
0	87818	16.81	-1
0	88364	16.91	-1
0	88918	17.01	-1
0	89464	17.11	-1
0	90010	17.21	-1
0	90556	17.31	-1
0	91102	17.41	-1
0	91648	17.51	-1
0	92194	17.61	-1
0	92740	17.71	-1
0	93286	17.81	-1
0	93832	17.91	-1
0	94386	18.01	-1
0	94932	18.11	-1
0	95478	18.21	-1
0	96024	18.31	-1
0	96570	18.41	-1
0	97116	18.51	-1
0	97662	18.61	-1
0	98208	18.71	-1
0	98754	18.81	-1
0	99300	18.91	-1
0	99854	19.01	-1
0	100400	19.11	-1
0	100946	19.21	-1
0	101492	19.31	-1
0	102038	19.41	-1
0	102584	19.51	-1
0	103130	19.61	-1
0	103676	19.71	-1
0	104222	19.81	-1
0	104768	19.91	-1
0	105322	20.01	-1
0	105868	20.11	-1
0	106414	20.21	-1
0	106960	20.31	-1
0	107506	20.41	-1
0	108052	20.51	-1
0	108598	20.61	-1
0	109144	20.71	-1
0	109690	20.81	-1
0	110236	20.91	-1
0	110790	21.01	-1
0	111336	21.11	-1
0	111882	21.21	-1
0	112428	21.31	-1
0	112974	21.41	-1
0	113520	21.51	-1
0	114066	21.61	-1
0	114612	21.71	-1
0	115158	21.81	-1
0	115704	21.91	-1
0	116258	22.01	-1
0	116804	22.11	-1
0	117350	22.21	-1
0	117896	22.31	-1
0	118442	22.41	-1
0	118988	22.51	-1
0	119534	22.61	-1
0	120080	22.71	-1
0	120626	22.81	-1
0	121172	22.91	-1
0	121726	23.01	-1
0	122272	23.11	-1
0	122818	23.21	-1
0	123364	23.31	-1
0	123910	23.41	-1
0	124456	23.51	-1
0	125002	23.61	-1
0	125548	23.71	-1
0	126094	23.81	-1
0	126640	23.91	-1
0	127194	24.01	-1
0	127740	24.11	-1
0	128286	24.21	-1
0	128832	24.31	-1
0	129378	24.41	-1
0	129924	24.51	-1
0	130470	24.61	-1
0	131016	24.71	-1
0	131562	24.81	-1
0	132108	24.91	-1
0	132662	25.01	-1
0	133208	25.11	-1
0	133754	25.21	-1
0	134300	25.31	-1
0	134846	25.41	-1
0	135392	25.51	-1
0	135938	25.61	-1
0	136484	25.71	-1
0	137030	25.81	-1
0	137576	25.91	-1
0	138130	26.01	-1
0	138676	26.11	-1
0	139222	26.21	-1
0	139768	26.31	-1
0	140314	26.41	-1
0	140860	26.51	-1
0	141406	26.61	-1
0	141952	26.71	-1
0	142498	26.81	-1
0	143044	26.91	-1
0	143598	27.01	-1
0	144144	27.11	-1
0	144690	27.21	-1
0	145236	27.31	-1
0	145782	27.41	-1
0	146328	27.51	-1
0	146874	27.61	-1
0	147420	27.71	-1
0	147966	27.81	-1
0	148512	27.91	-1
0	149066	28.01	-1
0	149612	28.11	-1
0	150158	28.21	-1
0	150704	28.31	-1
0	151250	28.41	-1
0	151796	28.51	-1
0	152342	28.61	-1
0	152888	28.71	-1
0	153434	28.81	-1
0	153980	28.91	-1
0	154534	29.01	-1
0	155080	29.11	-1
0	155626	29.21	-1
0	156172	29.31	-1
0	156718	29.41	-1
0	157264	29.51	-1
0	157810	29.61	-1
0	158356	29.71	-1
0	158902	29.81	-1
0	159448	29.91	-1
0	160002	30.01	-1
0	160548	30.11	-1
0	161094	30.21	-1
0	161640	30.31	-1
0	162186	30.41	-1
0	162732	30.51	-1
0	163278	30.61	-1
0	163824	30.71	-1
0	164370	30.81	-1
0	164916	30.91	-1
0	165470	31.01	-1
0	166016	31.11	-1
0	166562	31.21	-1
0	167108	31.31	-1
0	167654	31.41	-1
0	168200	31.51	-1
0	168746	31.61	-1
0	169292	31.71	-1
0	169838	31.81	-1
0	170384	31.91	-1
0	170938	32.01	-1
0	171484	32.11	-1
0	172030	32.21	-1
0	172576	32.31	-1
0	173122	32.41	-1
0	173668	32.51	-1
0	174214	32.61	-1
0	174760	32.71	-1
0	175306	32.81	-1
0	175852	32.91	-1
0	176406	33.01	-1
0	176952	33.11	-1
0	177498	33.21	-1
0	178044	33.31	-1
0	178590	33.41	-1
0	179136	33.51	-1
0	179682	33.61	-1
0	180228	33.71	-1
0	180774	33.81	-1
0	181320	33.91	-1
0	181874	34.01	-1
0	182420	34.11	-1
0	182966	34.21	-1
0	183512	34.31	-1
0	184058	34.41	-1
0	184604	34.51	-1
0	185150	34.61	-1
0	185696	34.71	-1
0	186242	34.81	-1
0	186788	34.91	-1
0	187342	35.01	-1
0	187888	35.11	-1
0	188434	35.21	-1
0	188980	35.31	-1
0	189526	35.41	-1
0	190072	35.51	-1
0	190618	35.61	-1
0	191164	35.71	-1
0	191710	35.81	-1
0	192256	35.91	-1
0	192810	36.01	-1
0	193356	36.11	-1
0	193902	36.21	-1
0	194448	36.31	-1
0	194994	36.41	-1
0	195540	36.51	-1
0	196086	36.61	-1
0	196632	36.71	-1
0	197178	36.81	-1
0	197724	36.91	-1
0	198278	37.01	-1
0	198824	37.11	-1
0	199370	37.21	-1
0	199916	37.31	-1
0	200462	37.41	-1
0	201008	37.51	-1
0	201554	37.61	-1
0	202100	37.71	-1
0	202646	37.81	-1
0	203192	37.91	-1
0	203746	38.01	-1
0	204292	38.11	-1
0	204838	38.21	-1
0	205384	38.31	-1
0	205930	38.41	-1
0	206476	38.51	-1
0	207022	38.61	-1
0	207568	38.71	-1
0	208114	38.81	-1
0	208660	38.91	-1
0	209214	39.01	-1
0	209760	39.11	-1
0	210306	39.21	-1
0	210852	39.31	-1
0	211398	39.41	-1
0	211944	39.51	-1
0	212490	39.61	-1
0	213036	39.71	-1
0	213582	39.81	-1
0	214128	39.91	-1
0	214682	40.01	-1
0	215228	40.11	-1
0	215774	40.21	-1
0	216320	40.31	-1
0	216866	40.41	-1
0	217412	40.51	-1
0	217958	40.61	-1
0	218504	40.71	-1
0	219050	40.81	-1
0	219596	40.91	-1
0	220150	41.01	-1
0	220696	41.11	-1
0	221242	41.21	-1
0	221788	41.31	-1
0	222334	41.41	-1
0	222880	41.51	-1
0	223426	41.61	-1
0	223972	41.71	-1
0	224518	41.81	-1
0	225064	41.91	-1
0	225618	42.01	-1
0	226164	42.11	-1
0	226710	42.21	-1
0	227256	42.31	-1
0	227802	42.41	-1
0	228348	42.51	-1
0	228894	42.61	-1
0	229440	42.71	-1
0	229986	42.81	-1
0	230532	42.91	-1
0	231086	43.01	-1
0	231632	43.11	-1
0	232178	43.21	-1
0	232724	43.31	-1
0	233270	43.41	-1
0	233816	43.51	-1
0	234362	43.61	-1
0	234908	43.71	-1
0	235454	43.81	-1
0	236000	43.91	-1
0	236554	44.01	-1
0	237100	44.11	-1
0	237646	44.21	-1
0	238192	44.31	-1
0	238738	44.41	-1
0	239284	44.51	-1
0	239830	44.61	-1
0	240376	44.71	-1
0	240922	44.81	-1
0	241468	44.91	-1
0	242022	45.01	-1
0	242568	45.11	-1
0	243114	45.21	-1
0	243660	45.31	-1
0	244206	45.41	-1
0	244752	45.51	-1
0	245298	45.61	-1
0	245844	45.71	-1
0	246390	45.81	-1
0	246936	45.91	-1
0	247490	46.01	-1
0	248036	46.11	-1
0	248582	46.21	-1
0	249128	46.31	-1
0	249674	46.41	-1
0	250220	46.51	-1
0	250766	46.61	-1
0	251312	46.71	-1
0	251858	46.81	-1
0	252404	46.91	-1
0	252958	47.01	-1
0	253504	47.11	-1
0	254050	47.21	-1
0	254596	47.31	-1
0	255142	47.41	-1
0	255688	47.51	-1
0	256234	47.61	-1
0	256780	47.71	-1
0	257326	47.81	-1
0	257872	47.91	-1
0	258426	48.01	-1
0	258972	48.11	-1
0	259518	48.21	-1
0	260064	48.31	-1
0	260610	48.41	-1
0	261156	48.51	-1
0	261702	48.61	-1
0	262248	48.71	-1
0	262794	48.81	-1
0	263340	48.91	-1
0	263894	49.01	-1
0	264440	49.11	-1
0	264986	49.21	-1
0	265532	49.31	-1
0	266078	49.41	-1
0	266624	49.51	-1
0	267170	49.61	-1
0	267716	49.71	-1
0	268262	49.81	-1
0	268808	49.91	-1
0	269362	50.01	-1
0	269908	50.11	-1
0	270454	50.21	-1
0	271000	50.31	-1
0	271546	50.41	-1
0	272092	50.51	-1
0	272638	50.61	-1
0	273184	50.71	-1
0	273730	50.81	-1
0	274276	50.91	-1
0	274830	51.01	-1
0	275376	51.11	-1
0	275922	51.21	-1
0	276468	51.31	-1
0	277014	51.41	-1
0	277560	51.51	-1
0	278106	51.61	-1
0	278652	51.71	-1
0	279198	51.81	-1
0	279744	51.91	-1
0	280298	52.01	-1
0	280844	52.11	-1
0	281390	52.21	-1
0	281936	52.31	-1
0	282482	52.41	-1
0	283028	52.51	-1
0	283574	52.61	-1
0	284120	52.71	-1
0	284666	52.81	-1
0	285212	52.91	-1
0	285766	53.01	-1
0	286312	53.11	-1
0	286858	53.21	-1
0	287404	53.31	-1
0	287950	53.41	-1
0	288496	53.51	-1
0	289042	53.61	-1
0	289588	53.71	-1
0	290134	53.81	-1
0	290680	53.91	-1
0	291234	54.01	-1
0	291780	54.11	-1
0	292326	54.21	-1
0	292872	54.31	-1
0	293418	54.41	-1
0	293964	54.51	-1
0	294510	54.61	-1
0	295056	54.71	-1
0	295602	54.81	-1
0	296148	54.91	-1
0	296702	55.01	-1
0	297248	55.11	-1
0	297794	55.21	-1
0	298340	55.31	-1
0	298886	55.41	-1
0	299432	55.51	-1
0	299978	55.61	-1
0	300524	55.71	-1
0	301070	55.81	-1
0	301616	55.91	-1
0	302170	56.01	-1
0	302716	56.11	-1
0	303262	56.21	-1
0	303808	56.31	-1
0	304354	56.41	-1
0	304900	56.51	-1
0	305446	56.61	-1
0	305992	56.71	-1
0	306538	56.81	-1
0	307084	56.91	-1
0	307638	57.01	-1
0	308184	57.11	-1
0	308730	57.21	-1
0	309276	57.31	-1
0	309822	57.41	-1
0	310368	57.51	-1
0	310914	57.61	-1
0	311460	57.71	-1
0	312006	57.81	-1
0	312552	57.91	-1
0	313106	58.01	-1
0	313652	58.11	-1
0	314198	58.21	-1
0	314744	58.31	-1
0	315290	58.41	-1
0	315836	58.51	-1
0	316382	58.61	-1
0	316928	58.71	-1
0	317474	58.81	-1
0	318020	58.91	-1
0	318574	59.01	-1
0	319120	59.11	-1
0	319666	59.21	-1
0	320212	59.31	-1
0	320758	59.41	-1
0	321304	59.51	-1
0	321850	59.61	-1
0	322396	59.71	-1
0	322942	59.81	-1
0	323488	59.91	-1
0	324042	60.01	-1
0	324588	60.11	-1
0	325134	60.21	-1
0	325680	60.31	-1
0	326226	60.41	-1
0	326772	60.51	-1
0	327318	60.61	25.5666
0	327864	60.71	25.7111
0	328410	60.81	25.8555
0	328956	60.91	26
0	329510	61.01	26.1444
0	330056	61.11	26.2888
0	330602	61.21	26.4333
0	331148	61.31	26.5777
0	331694	61.41	26.7222
0	332240	61.51	26.8666
0	332786	61.61	27.011
0	333332	61.71	27.1555
0	333878	61.81	27.2999
0	334424	61.91	27.4444
0	334978	62.01	27.5888
0	335524	62.11	27.7332
0	336070	62.21	27.8777
0	336616	62.31	28.0221
0	337162	62.41	28.1666
0	337708	62.51	28.311
0	338254	62.61	28.4554
0	338800	62.71	28.5999
0	339346	62.81	28.7443
0	339892	62.91	28.8888
0	340446	63.01	29.0332
0	340992	63.11	29.1776
0	341538	63.21	29.3221
0	342084	63.31	29.4665
0	342630	63.41	29.611
0	343176	63.51	29.7554
0	343722	63.61	29.8998
0	344268	63.71	30.0443
0	344814	63.81	30.1887
0	345360	63.91	30.3332
0	345914	64.01	30.4776
0	346460	64.11	30.622
0	347006	64.21	30.7665
0	347552	64.31	30.9109
0	348098	64.41	31.0554
0	348644	64.51	31.1998
0	349190	64.61	31.3442
0	349736	64.71	31.4887
0	350282	64.81	31.6331
0	350828	64.91	31.7776
0	351382	65.01	31.922
0	351928	65.11	32.0664
0	352474	65.21	32.2109
0	353020	65.31	32.3553
0	353566	65.41	32.4998
0	354112	65.51	32.6442
0	354658	65.61	32.7886
0	355204	65.71	32.9331
0	355750	65.81	33.0775
0	356296	65.91	33.222
0	356850	66.01	33.3664
0	357396	66.11	33.5108
0	357942	66.21	33.6553
0	358488	66.31	33.7997
0	359034	66.41	33.9442
0	359580	66.51	34.0886
0	360126	66.61	34.233
0	360672	66.71	34.3775
0	361218	66.81	34.5219
0	361764	66.91	34.6664
0	362318	67.01	34.8108
0	362864	67.11	34.9552
0	363410	67.21	35.0997
0	363956	67.31	35.2441
0	364502	67.41	35.3886
0	365048	67.51	35.533
0	365594	67.61	35.6774
0	366140	67.71	35.8219
0	366686	67.81	35.9663
0	367232	67.91	36.1108
0	367786	68.01	36.2552
0	368332	68.11	36.3996
0	368878	68.21	36.5441
0	369424	68.31	36.6885
0	369970	68.41	36.833
0	370516	68.51	36.9774
0	371062	68.61	37.1218
0	371608	68.71	37.2663
0	372154	68.81	37.4107
0	372700	68.91	37.5552
0	373254	69.01	37.6996
0	373800	69.11	37.844
0	374346	69.21	37.9885
0	374892	69.31	38.1329
0	375438	69.41	38.2774
0	375984	69.51	38.4218
0	376530	69.61	38.5662
0	377076	69.71	38.7107
0	377622	69.81	38.8551
0	378168	69.91	38.9996
0	378722	70.01	39.144
0	379268	70.11	39.2884
0	379814	70.21	39.4329
0	380360	70.31	39.5773
0	380906	70.41	39.7218
0	381452	70.51	39.8662
0	381998	70.61	40.0106
0	382544	70.71	40.1551
0	383090	70.81	40.2995
0	383636	70.91	40.444
0	384190	71.01	40.5884
0	384736	71.11	40.7328
0	385282	71.21	40.8773
0	385828	71.31	41.0217
0	386374	71.41	41.1662
0	386920	71.51	41.3106
0	387466	71.61	41.455
0	388012	71.71	41.5995
0	388558	71.81	41.7439
0	389104	71.91	41.8884
0	389658	72.01	42.0328
0	390204	72.11	42.1772
0	390750	72.21	42.3217
0	391296	72.31	42.4661
0	391842	72.41	42.6106
0	392388	72.51	42.755
0	392934	72.61	42.8994
0	393480	72.71	43.0439
0	394026	72.81	43.1883
0	394572	72.91	43.3328
0	395126	73.01	43.4772
0	395672	73.11	43.6216
0	396218	73.21	43.7661
0	396764	73.31	43.9105
0	397310	73.41	44.055
0	397856	73.51	44.1994
0	398402	73.61	44.3438
0	398948	73.71	44.4883
0	399494	73.81	44.6327
0	400040	73.91	44.7772
0	400594	74.01	44.9216
0	401140	74.11	45.066
0	401686	74.21	45.2105
0	402232	74.31	45.3549
0	402778	74.41	45.4994
0	403324	74.51	45.6438
0	403870	74.61	45.7882
0	404416	74.71	45.9327
0	404962	74.81	46.0771
0	405508	74.91	46.2216
0	406062	75.01	46.366
0	406608	75.11	46.5104
0	407154	75.21	46.6549
0	407700	75.31	46.7993
0	408246	75.41	46.9438
0	408792	75.51	47.0882
0	409338	75.61	47.2326
0	409884	75.71	47.3771
0	410430	75.81	47.5215
0	410976	75.91	47.666
0	411530	76.01	47.8104
0	412076	76.11	47.9548
0	412622	76.21	48.0993
0	413168	76.31	48.2437
0	413714	76.41	48.3882
0	414260	76.51	48.5326
0	414806	76.61	48.677
0	415352	76.71	48.8215
0	415898	76.81	48.9659
0	416444	76.91	49.1104
0	416998	77.01	49.2548
0	417544	77.11	49.3992
0	418090	77.21	49.5437
0	418636	77.31	49.6881
0	419182	77.41	49.8326
0	419728	77.51	49.977
0	420274	77.61	50.1214
0	420820	77.71	50.2659
0	421366	77.81	50.4103
0	421912	77.91	50.5548
0	422466	78.01	50.6992
0	423012	78.11	50.8436
0	423558	78.21	50.9881
0	424104	78.31	51.1325
0	424650	78.41	51.277
0	425196	78.51	51.4214
0	425742	78.61	51.5658
0	426288	78.71	51.7103
0	426834	78.81	51.8547
0	427380	78.91	51.9992
0	427934	79.01	52.1436
0	428480	79.11	52.288
0	429026	79.21	52.4325
0	429572	79.31	52.5769
0	430118	79.41	52.7214
0	430664	79.51	52.8658
0	431210	79.61	53.0102
0	431756	79.71	53.1547
0	432302	79.81	53.2991
0	432848	79.91	53.4436
0	433402	80.01	53.588
0	433948	80.11	53.7324
0	434494	80.21	53.8769
0	435040	80.31	54.0213
0	435586	80.41	54.1658
0	436132	80.51	54.3102
0	436678	80.61	54.4546
0	437224	80.71	54.5991
0	437770	80.81	54.7435
0	438316	80.91	54.888
0	438870	81.01	55.0324
0	439416	81.11	55.1768
0	439962	81.21	55.3213
0	440508	81.31	55.4657
0	441054	81.41	55.6102
0	441600	81.51	55.7546
0	442146	81.61	55.899
0	442692	81.71	56.0435
0	443238	81.81	56.1879
0	443784	81.91	56.3324
0	444338	82.01	56.4768
0	444884	82.11	56.6212
0	445430	82.21	56.7657
0	445976	82.31	56.9101
0	446522	82.41	57.0546
0	447068	82.51	57.199
0	447614	82.61	57.3434
0	448160	82.71	57.4879
0	448706	82.81	57.6323
0	449252	82.91	57.7768
0	449806	83.01	57.9212
0	450352	83.11	58.0656
0	450898	83.21	58.2101
0	451444	83.31	58.3545
0	451990	83.41	58.499
0	452536	83.51	58.6434
0	453082	83.61	58.7878
0	453628	83.71	58.9323
0	454174	83.81	59.0767
0	454720	83.91	59.2212
0	455274	84.01	59.3656
0	455820	84.11	59.51
0	456366	84.21	59.6545
0	456912	84.31	59.7989
0	457458	84.41	59.9434
0	458004	84.51	60.0878
0	458550	84.61	60.2322
0	459096	84.71	60.3767
0	459642	84.81	60.5211
0	460188	84.91	60.6656
0	460742	85.01	60.81
0	461288	85.11	60.9544
0	461834	85.21	61.0989
0	462380	85.31	61.2433
0	462926	85.41	61.3878
0	463472	85.51	61.5322
0	464018	85.61	61.6766
0	464564	85.71	61.8211
0	465110	85.81	61.9655
0	465656	85.91	62.11
0	466210	86.01	62.2544
0	466756	86.11	62.3988
0	467302	86.21	62.5433
0	467848	86.31	62.6877
0	468394	86.41	62.8322
0	468940	86.51	62.9766
0	469486	86.61	63.121
0	470032	86.71	63.2655
0	470578	86.81	63.4099
0	471124	86.91	63.5544
0	471678	87.01	63.6988
0	472224	87.11	63.8432
0	472770	87.21	63.9877
0	473316	87.31	64.1321
0	473862	87.41	64.2766
0	474408	87.51	64.421
0	474954	87.61	64.5654
0	475500	87.71	64.7099
0	476046	87.81	64.8543
0	476592	87.91	64.9988
0	477146	88.01	65.1432
0	477692	88.11	65.2876
0	478238	88.21	65.4321
0	478784	88.31	65.5765
0	479330	88.41	65.721
0	479876	88.51	65.8654
0	480422	88.61	66.0098
0	480968	88.71	66.1543
0	481514	88.81	66.2987
0	482060	88.91	66.4432
0	482614	89.01	66.5876
0	483160	89.11	66.732
0	483706	89.21	66.8765
0	484252	89.31	67.0209
0	484798	89.41	67.1654
0	485344	89.51	67.3098
0	485890	89.61	67.4542
0	486436	89.71	67.5987
0	486982	89.81	67.7431
0	487528	89.91	67.8876
0	488082	90.01	68.032
0	488628	90.11	68.1764
0	489174	90.21	68.3209
0	489720	90.31	68.4653
0	490266	90.41	68.6098
0	490812	90.51	68.7542
0	491358	90.61	68.8986
0	491904	90.71	69.0431
0	492450	90.81	69.1875
0	492996	90.91	69.332
0	493550	91.01	69.4764
0	494096	91.11	69.6208
0	494642	91.21	69.7653
0	495188	91.31	69.9097
0	495734	91.41	70.0542
0	496280	91.51	70.1986
0	496826	91.61	70.343
0	497372	91.71	70.4875
0	497918	91.81	70.6319
0	498464	91.91	70.7764
0	499018	92.01	70.9208
0	499564	92.11	71.0652
0	500110	92.21	71.2097
0	500656	92.31	71.3541
0	501202	92.41	71.4986
0	501748	92.51	71.643
0	502294	92.61	71.7874
0	502840	92.71	71.9319
0	503386	92.81	72.0763
0	503932	92.91	72.2208
0	504486	93.01	72.3652
0	505032	93.11	72.5096
0	505578	93.21	72.6541
0	506124	93.31	72.7985
0	506670	93.41	72.943
0	507216	93.51	73.0874
0	507762	93.61	73.2318
0	508308	93.71	73.3763
0	508854	93.81	73.5207
0	509400	93.91	73.6652
0	509954	94.01	73.8096
0	510500	94.11	73.954
0	511046	94.21	74.0985
0	511592	94.31	74.2429
0	512138	94.41	74.3874
0	512684	94.51	74.5318
0	513230	94.61	74.6762
0	513776	94.71	74.8207
0	514322	94.81	74.9651
0	514868	94.91	75.1096
0	515422	95.01	75.254
0	515968	95.11	75.3984
0	516514	95.21	75.5429
0	517060	95.31	75.6873
0	517606	95.41	75.8318
0	518152	95.51	75.9762
0	518698	95.61	76.1206
0	519244	95.71	76.2651
0	519790	95.81	76.4095
0	520336	95.91	76.554
0	520890	96.01	76.6984
0	521436	96.11	76.8428
0	521982	96.21	76.9873
0	522528	96.31	77.1317
0	523074	96.41	77.2762
0	523620	96.51	77.4206
0	524166	96.61	77.565
0	524712	96.71	77.7095
0	525258	96.81	77.8539
0	525804	96.91	77.9984
0	526358	97.01	78.1428
0	526904	97.11	78.2872
0	527450	97.21	78.4317
0	527996	97.31	78.5761
0	528542	97.41	78.7206
0	529088	97.51	78.865
0	529634	97.61	79.0094
0	530180	97.71	79.1539
0	530726	97.81	79.2983
0	531272	97.91	79.4428
0	531826	98.01	79.5872
0	532372	98.11	79.7316
0	532918	98.21	79.8761
0	533464	98.31	80.0205
0	534010	98.41	80.165
0	534556	98.51	80.3094
0	535102	98.61	80.4538
0	535648	98.71	80.5983
0	536194	98.81	80.7427
0	536740	98.91	80.8872
0	537294	99.01	81.0316
0	537840	99.11	81.176
0	538386	99.21	81.3205
0	538932	99.31	81.4649
0	539478	99.41	81.6094
0	540024	99.51	81.7538
0	540570	99.61	81.8982
0	541116	99.71	82.0427
0	541662	99.81	82.1871
0	542208	99.91	82.3316
1	113	1.11	0
1	659	1.21	0
1	1205	1.31	0
1	1751	1.41	0
1	2297	1.51	0
1	2843	1.61	0
1	3389	1.71	0
1	3935	1.81	0
1	4481	1.91	0
1	5035	2.01	0
1	5581	2.11	0
1	6127	2.21	0
1	6673	2.31	0
1	7219	2.41	0
1	7765	2.51	0
1	8311	2.61	0
1	8857	2.71	0
1	9403	2.81	0
1	9949	2.91	0
1	10503	3.01	0
1	11049	3.11	0
1	11595	3.21	0
1	12141	3.31	0
1	12687	3.41	0
1	13233	3.51	0
1	13779	3.61	0
1	14325	3.71	0
1	14871	3.81	0
1	15417	3.91	0
1	15971	4.01	0
1	16517	4.11	0
1	17063	4.21	0
1	17609	4.31	0
1	18155	4.41	0
1	18701	4.51	0
1	19247	4.61	0
1	19793	4.71	0
1	20339	4.81	0
1	20885	4.91	0
1	21439	5.01	0
1	21985	5.11	0
1	22531	5.21	0
1	23077	5.31	0
1	23623	5.41	0
1	24169	5.51	0
1	24715	5.61	0
1	25261	5.71	0
1	25807	5.81	0
1	26353	5.91	0
1	26907	6.01	0
1	27453	6.11	0
1	27999	6.21	0
1	28545	6.31	0
1	29091	6.41	0
1	29637	6.51	0
1	30183	6.61	0
1	30729	6.71	0
1	31275	6.81	0
1	31821	6.91	0
1	32375	7.01	0
1	32921	7.11	0
1	33467	7.21	0
1	34013	7.31	0
1	34559	7.41	0
1	35105	7.51	0
1	35651	7.61	0
1	36197	7.71	0
1	36743	7.81	0
1	37289	7.91	0
1	37843	8.01	0
1	38389	8.11	0
1	38935	8.21	0
1	39481	8.31	0
1	40027	8.41	0
1	40573	8.51	0
1	41119	8.61	0
1	41665	8.71	0
1	42211	8.81	0
1	42757	8.91	0
1	43311	9.01	0
1	43857	9.11	0
1	44403	9.21	0
1	44949	9.31	0
1	45495	9.41	0
1	46041	9.51	0
1	46587	9.61	0
1	47133	9.71	0
1	47679	9.81	0
1	48225	9.91	0
1	50642	10.01	0
1	51188	10.11	0
1	51734	10.21	0
1	52280	10.31	0
1	52826	10.41	0
1	53372	10.51	0
1	53918	10.61	0
1	54464	10.71	0
1	55010	10.81	0
1	55556	10.91	0
1	56110	11.01	0
1	56656	11.11	0
1	57202	11.21	0
1	57748	11.31	0
1	58294	11.41	0
1	58840	11.51	0
1	59386	11.61	0
1	59932	11.71	0
1	60478	11.81	0
1	61024	11.91	0
1	61578	12.01	0
1	62124	12.11	0
1	62670	12.21	0
1	63216	12.31	0
1	63762	12.41	0
1	64308	12.51	0
1	64854	12.61	0
1	65400	12.71	0
1	65946	12.81	0
1	66492	12.91	0
1	67046	13.01	0
1	67592	13.11	0
1	68138	13.21	0
1	68684	13.31	0
1	69230	13.41	0
1	69776	13.51	0
1	70322	13.61	0
1	70868	13.71	0
1	71414	13.81	0
1	71960	13.91	0
1	72514	14.01	0
1	73060	14.11	0
1	73606	14.21	0
1	74152	14.31	0
1	74698	14.41	0
1	75244	14.51	0
1	75790	14.61	0
1	76336	14.71	0
1	76882	14.81	0
1	77428	14.91	0
1	77982	15.01	0
1	78528	15.11	0
1	79074	15.21	0
1	79620	15.31	0
1	80166	15.41	0
1	80712	15.51	0
1	81258	15.61	0
1	81804	15.71	0
1	82350	15.81	0
1	82896	15.91	0
1	83450	16.01	0
1	83996	16.11	0
1	84542	16.21	0
1	85088	16.31	0
1	85634	16.41	0
1	86180	16.51	0
1	86726	16.61	0
1	87272	16.71	0
1	87818	16.81	0
1	88364	16.91	0
1	88918	17.01	0
1	89464	17.11	0
1	90010	17.21	0
1	90556	17.31	0
1	91102	17.41	0
1	91648	17.51	0
1	92194	17.61	0
1	92740	17.71	0
1	93286	17.81	0
1	93832	17.91	0
1	94386	18.01	0
1	94932	18.11	0
1	95478	18.21	0
1	96024	18.31	0
1	96570	18.41	0
1	97116	18.51	0
1	97662	18.61	0
1	98208	18.71	0
1	98754	18.81	0
1	99300	18.91	0
1	99854	19.01	0
1	100400	19.11	0
1	100946	19.21	0
1	101492	19.31	0
1	102038	19.41	0
1	102584	19.51	0
1	103130	19.61	0
1	103676	19.71	0
1	104222	19.81	0
1	104768	19.91	0
1	105322	20.01	0
1	105868	20.11	0
1	106414	20.21	0
1	106960	20.31	0
1	107506	20.41	0
1	108052	20.51	0
1	108598	20.61	0
1	109144	20.71	0
1	109690	20.81	0
1	110236	20.91	0
1	110790	21.01	0
1	111336	21.11	0
1	111882	21.21	0
1	112428	21.31	0
1	112974	21.41	0
1	113520	21.51	0
1	114066	21.61	0
1	114612	21.71	0
1	115158	21.81	0
1	115704	21.91	0
1	116258	22.01	0
1	116804	22.11	0
1	117350	22.21	0
1	117896	22.31	0
1	118442	22.41	0
1	118988	22.51	0
1	119534	22.61	0
1	120080	22.71	0
1	120626	22.81	0
1	121172	22.91	0
1	121726	23.01	0
1	122272	23.11	0
1	122818	23.21	0
1	123364	23.31	0
1	123910	23.41	0
1	124456	23.51	0
1	125002	23.61	0
1	125548	23.71	0
1	126094	23.81	0
1	126640	23.91	0
1	127194	24.01	0
1	127740	24.11	0
1	128286	24.21	0
1	128832	24.31	0
1	129378	24.41	0
1	129924	24.51	0
1	130470	24.61	0
1	131016	24.71	0
1	131562	24.81	0
1	132108	24.91	0
1	132662	25.01	0
1	133208	25.11	0
1	133754	25.21	0
1	134300	25.31	0
1	134846	25.41	0
1	135392	25.51	0
1	135938	25.61	0
1	136484	25.71	0
1	137030	25.81	0
1	137576	25.91	0
1	138130	26.01	0
1	138676	26.11	0
1	139222	26.21	0
1	139768	26.31	0
1	140314	26.41	0
1	140860	26.51	0
1	141406	26.61	0
1	141952	26.71	0
1	142498	26.81	0
1	143044	26.91	0
1	143598	27.01	0
1	144144	27.11	0
1	144690	27.21	0
1	145236	27.31	0
1	145782	27.41	0
1	146328	27.51	0
1	146874	27.61	0
1	147420	27.71	0
1	147966	27.81	0
1	148512	27.91	0
1	149066	28.01	0
1	149612	28.11	0
1	150158	28.21	0
1	150704	28.31	0
1	151250	28.41	0
1	151796	28.51	0
1	152342	28.61	0
1	152888	28.71	0
1	153434	28.81	0
1	153980	28.91	0
1	154534	29.01	0
1	155080	29.11	0
1	155626	29.21	0
1	156172	29.31	0
1	156718	29.41	0
1	157264	29.51	0
1	157810	29.61	0
1	158356	29.71	0
1	158902	29.81	0
1	159448	29.91	0
1	160002	30.01	0
1	160548	30.11	0
1	161094	30.21	0
1	161640	30.31	0
1	162186	30.41	0
1	162732	30.51	0
1	163278	30.61	0
1	163824	30.71	0
1	164370	30.81	0
1	164916	30.91	0
1	165470	31.01	0
1	166016	31.11	0
1	166562	31.21	0
1	167108	31.31	0
1	167654	31.41	0
1	168200	31.51	0
1	168746	31.61	0
1	169292	31.71	0
1	169838	31.81	0
1	170384	31.91	0
1	170938	32.01	0
1	171484	32.11	0
1	172030	32.21	0
1	172576	32.31	0
1	173122	32.41	0
1	173668	32.51	0
1	174214	32.61	0
1	174760	32.71	0
1	175306	32.81	0
1	175852	32.91	0
1	176406	33.01	0
1	176952	33.11	0
1	177498	33.21	0
1	178044	33.31	0
1	178590	33.41	0
1	179136	33.51	0
1	179682	33.61	0
1	180228	33.71	0
1	180774	33.81	0
1	181320	33.91	0
1	181874	34.01	0
1	182420	34.11	0
1	182966	34.21	0
1	183512	34.31	0
1	184058	34.41	0
1	184604	34.51	0
1	185150	34.61	0
1	185696	34.71	0
1	186242	34.81	0
1	186788	34.91	0
1	187342	35.01	0
1	187888	35.11	0
1	188434	35.21	0
1	188980	35.31	0
1	189526	35.41	0
1	190072	35.51	0
1	190618	35.61	0
1	191164	35.71	0
1	191710	35.81	0
1	192256	35.91	0
1	192810	36.01	0
1	193356	36.11	0
1	193902	36.21	0
1	194448	36.31	0
1	194994	36.41	0
1	195540	36.51	0
1	196086	36.61	0
1	196632	36.71	0
1	197178	36.81	0
1	197724	36.91	0
1	198278	37.01	0
1	198824	37.11	0
1	199370	37.21	0
1	199916	37.31	0
1	200462	37.41	0
1	201008	37.51	0
1	201554	37.61	0
1	202100	37.71	0
1	202646	37.81	0
1	203192	37.91	0
1	203746	38.01	0
1	204292	38.11	0
1	204838	38.21	0
1	205384	38.31	0
1	205930	38.41	0
1	206476	38.51	0
1	207022	38.61	0
1	207568	38.71	0
1	208114	38.81	0
1	208660	38.91	0
1	209214	39.01	0
1	209760	39.11	0
1	210306	39.21	0
1	210852	39.31	0
1	211398	39.41	0
1	211944	39.51	0
1	212490	39.61	0
1	213036	39.71	0
1	213582	39.81	0
1	214128	39.91	0
1	214682	40.01	0
1	215228	40.11	0
1	215774	40.21	0
1	216320	40.31	0
1	216866	40.41	0
1	217412	40.51	0
1	217958	40.61	0
1	218504	40.71	0
1	219050	40.81	0
1	219596	40.91	0
1	220150	41.01	0
1	220696	41.11	0
1	221242	41.21	0
1	221788	41.31	0
1	222334	41.41	0
1	222880	41.51	0
1	223426	41.61	0
1	223972	41.71	0
1	224518	41.81	0
1	225064	41.91	0
1	225618	42.01	0
1	226164	42.11	0
1	226710	42.21	0
1	227256	42.31	0
1	227802	42.41	0
1	228348	42.51	0
1	228894	42.61	0
1	229440	42.71	0
1	229986	42.81	0
1	230532	42.91	0
1	231086	43.01	0
1	231632	43.11	0
1	232178	43.21	0
1	232724	43.31	0
1	233270	43.41	0
1	233816	43.51	0
1	234362	43.61	0
1	234908	43.71	0
1	235454	43.81	0
1	236000	43.91	0
1	236554	44.01	0
1	237100	44.11	0
1	237646	44.21	0
1	238192	44.31	0
1	238738	44.41	0
1	239284	44.51	0
1	239830	44.61	0
1	240376	44.71	0
1	240922	44.81	0
1	241468	44.91	0
1	242022	45.01	0
1	242568	45.11	0
1	243114	45.21	0
1	243660	45.31	0
1	244206	45.41	0
1	244752	45.51	0
1	245298	45.61	0
1	245844	45.71	0
1	246390	45.81	0
1	246936	45.91	0
1	247490	46.01	0
1	248036	46.11	0
1	248582	46.21	0
1	249128	46.31	0
1	249674	46.41	0
1	250220	46.51	0
1	250766	46.61	0
1	251312	46.71	0
1	251858	46.81	0
1	252404	46.91	0
1	252958	47.01	0
1	253504	47.11	0
1	254050	47.21	0
1	254596	47.31	0
1	255142	47.41	0
1	255688	47.51	0
1	256234	47.61	0
1	256780	47.71	0
1	257326	47.81	0
1	257872	47.91	0
1	258426	48.01	0
1	258972	48.11	0
1	259518	48.21	0
1	260064	48.31	0
1	260610	48.41	0
1	261156	48.51	0
1	261702	48.61	0
1	262248	48.71	0
1	262794	48.81	0
1	263340	48.91	0
1	263894	49.01	0
1	264440	49.11	0
1	264986	49.21	0
1	265532	49.31	0
1	266078	49.41	0
1	266624	49.51	0
1	267170	49.61	0
1	267716	49.71	0
1	268262	49.81	0
1	268808	49.91	0
1	269362	50.01	0
1	269908	50.11	0
1	270454	50.21	0
1	271000	50.31	0
1	271546	50.41	0
1	272092	50.51	0
1	272638	50.61	0
1	273184	50.71	0
1	273730	50.81	0
1	274276	50.91	0
1	274830	51.01	0
1	275376	51.11	0
1	275922	51.21	0
1	276468	51.31	0
1	277014	51.41	0
1	277560	51.51	0
1	278106	51.61	0
1	278652	51.71	0
1	279198	51.81	0
1	279744	51.91	0
1	280298	52.01	0
1	280844	52.11	0
1	281390	52.21	0
1	281936	52.31	0
1	282482	52.41	0
1	283028	52.51	0
1	283574	52.61	0
1	284120	52.71	0
1	284666	52.81	0
1	285212	52.91	0
1	285766	53.01	0
1	286312	53.11	0
1	286858	53.21	0
1	287404	53.31	0
1	287950	53.41	0
1	288496	53.51	0
1	289042	53.61	0
1	289588	53.71	0
1	290134	53.81	0
1	290680	53.91	0
1	291234	54.01	0
1	291780	54.11	0
1	292326	54.21	0
1	292872	54.31	0
1	293418	54.41	0
1	293964	54.51	0
1	294510	54.61	0
1	295056	54.71	0
1	295602	54.81	0
1	296148	54.91	0
1	296702	55.01	0
1	297248	55.11	0
1	297794	55.21	0
1	298340	55.31	0
1	298886	55.41	0
1	299432	55.51	0
1	299978	55.61	0
1	300524	55.71	0
1	301070	55.81	0
1	301616	55.91	0
1	302170	56.01	0
1	302716	56.11	0
1	303262	56.21	0
1	303808	56.31	0
1	304354	56.41	0
1	304900	56.51	0
1	305446	56.61	0
1	305992	56.71	0
1	306538	56.81	0
1	307084	56.91	0
1	307638	57.01	0
1	308184	57.11	0
1	308730	57.21	0
1	309276	57.31	0
1	309822	57.41	0
1	310368	57.51	0
1	310914	57.61	0
1	311460	57.71	0
1	312006	57.81	0
1	312552	57.91	0
1	313106	58.01	0
1	313652	58.11	0
1	314198	58.21	0
1	314744	58.31	0
1	315290	58.41	0
1	315836	58.51	0
1	316382	58.61	0
1	316928	58.71	0
1	317474	58.81	0
1	318020	58.91	0
1	318574	59.01	0
1	319120	59.11	0
1	319666	59.21	0
1	320212	59.31	0
1	320758	59.41	0
1	321304	59.51	0
1	321850	59.61	0
1	322396	59.71	0
1	322942	59.81	0
1	323488	59.91	0
1	324042	60.01	0
1	324588	60.11	0
1	325134	60.21	0
1	325680	60.31	0
1	326226	60.41	0
1	326772	60.51	0
1	327318	60.61	1.4444
1	327864	60.71	1.4444
1	328410	60.81	1.4444
1	328956	60.91	1.4444
1	329510	61.01	1.4444
1	330056	61.11	1.4444
1	330602	61.21	1.4444
1	331148	61.31	1.4444
1	331694	61.41	1.4444
1	332240	61.51	1.4444
1	332786	61.61	1.4444
1	333332	61.71	1.4444
1	333878	61.81	1.4444
1	334424	61.91	1.4444
1	334978	62.01	1.4444
1	335524	62.11	1.4444
1	336070	62.21	1.4444
1	336616	62.31	1.4444
1	337162	62.41	1.4444
1	337708	62.51	1.4444
1	338254	62.61	1.4444
1	338800	62.71	1.4444
1	339346	62.81	1.4444
1	339892	62.91	1.4444
1	340446	63.01	1.4444
1	340992	63.11	1.4444
1	341538	63.21	1.4444
1	342084	63.31	1.4444
1	342630	63.41	1.4444
1	343176	63.51	1.4444
1	343722	63.61	1.4444
1	344268	63.71	1.4444
1	344814	63.81	1.4444
1	345360	63.91	1.4444
1	345914	64.01	1.4444
1	346460	64.11	1.4444
1	347006	64.21	1.4444
1	347552	64.31	1.4444
1	348098	64.41	1.4444
1	348644	64.51	1.4444
1	349190	64.61	1.4444
1	349736	64.71	1.4444
1	350282	64.81	1.4444
1	350828	64.91	1.4444
1	351382	65.01	1.4444
1	351928	65.11	1.4444
1	352474	65.21	1.4444
1	353020	65.31	1.4444
1	353566	65.41	1.4444
1	354112	65.51	1.4444
1	354658	65.61	1.4444
1	355204	65.71	1.4444
1	355750	65.81	1.4444
1	356296	65.91	1.4444
1	356850	66.01	1.4444
1	357396	66.11	1.4444
1	357942	66.21	1.4444
1	358488	66.31	1.4444
1	359034	66.41	1.4444
1	359580	66.51	1.4444
1	360126	66.61	1.4444
1	360672	66.71	1.4444
1	361218	66.81	1.4444
1	361764	66.91	1.4444
1	362318	67.01	1.4444
1	362864	67.11	1.4444
1	363410	67.21	1.4444
1	363956	67.31	1.4444
1	364502	67.41	1.4444
1	365048	67.51	1.4444
1	365594	67.61	1.4444
1	366140	67.71	1.4444
1	366686	67.81	1.4444
1	367232	67.91	1.4444
1	367786	68.01	1.4444
1	368332	68.11	1.4444
1	368878	68.21	1.4444
1	369424	68.31	1.4444
1	369970	68.41	1.4444
1	370516	68.51	1.4444
1	371062	68.61	1.4444
1	371608	68.71	1.4444
1	372154	68.81	1.4444
1	372700	68.91	1.4444
1	373254	69.01	1.4444
1	373800	69.11	1.4444
1	374346	69.21	1.4444
1	374892	69.31	1.4444
1	375438	69.41	1.4444
1	375984	69.51	1.4444
1	376530	69.61	1.4444
1	377076	69.71	1.4444
1	377622	69.81	1.4444
1	378168	69.91	1.4444
1	378722	70.01	1.4444
1	379268	70.11	1.4444
1	379814	70.21	1.4444
1	380360	70.31	1.4444
1	380906	70.41	1.4444
1	381452	70.51	1.4444
1	381998	70.61	1.4444
1	382544	70.71	1.4444
1	383090	70.81	1.4444
1	383636	70.91	1.4444
1	384190	71.01	1.4444
1	384736	71.11	1.4444
1	385282	71.21	1.4444
1	385828	71.31	1.4444
1	386374	71.41	1.4444
1	386920	71.51	1.4444
1	387466	71.61	1.4444
1	388012	71.71	1.4444
1	388558	71.81	1.4444
1	389104	71.91	1.4444
1	389658	72.01	1.4444
1	390204	72.11	1.4444
1	390750	72.21	1.4444
1	391296	72.31	1.4444
1	391842	72.41	1.4444
1	392388	72.51	1.4444
1	392934	72.61	1.4444
1	393480	72.71	1.4444
1	394026	72.81	1.4444
1	394572	72.91	1.4444
1	395126	73.01	1.4444
1	395672	73.11	1.4444
1	396218	73.21	1.4444
1	396764	73.31	1.4444
1	397310	73.41	1.4444
1	397856	73.51	1.4444
1	398402	73.61	1.4444
1	398948	73.71	1.4444
1	399494	73.81	1.4444
1	400040	73.91	1.4444
1	400594	74.01	1.4444
1	401140	74.11	1.4444
1	401686	74.21	1.4444
1	402232	74.31	1.4444
1	402778	74.41	1.4444
1	403324	74.51	1.4444
1	403870	74.61	1.4444
1	404416	74.71	1.4444
1	404962	74.81	1.4444
1	405508	74.91	1.4444
1	406062	75.01	1.4444
1	406608	75.11	1.4444
1	407154	75.21	1.4444
1	407700	75.31	1.4444
1	408246	75.41	1.4444
1	408792	75.51	1.4444
1	409338	75.61	1.4444
1	409884	75.71	1.4444
1	410430	75.81	1.4444
1	410976	75.91	1.4444
1	411530	76.01	1.4444
1	412076	76.11	1.4444
1	412622	76.21	1.4444
1	413168	76.31	1.4444
1	413714	76.41	1.4444
1	414260	76.51	1.4444
1	414806	76.61	1.4444
1	415352	76.71	1.4444
1	415898	76.81	1.4444
1	416444	76.91	1.4444
1	416998	77.01	1.4444
1	417544	77.11	1.4444
1	418090	77.21	1.4444
1	418636	77.31	1.4444
1	419182	77.41	1.4444
1	419728	77.51	1.4444
1	420274	77.61	1.4444
1	420820	77.71	1.4444
1	421366	77.81	1.4444
1	421912	77.91	1.4444
1	422466	78.01	1.4444
1	423012	78.11	1.4444
1	423558	78.21	1.4444
1	424104	78.31	1.4444
1	424650	78.41	1.4444
1	425196	78.51	1.4444
1	425742	78.61	1.4444
1	426288	78.71	1.4444
1	426834	78.81	1.4444
1	427380	78.91	1.4444
1	427934	79.01	1.4444
1	428480	79.11	1.4444
1	429026	79.21	1.4444
1	429572	79.31	1.4444
1	430118	79.41	1.4444
1	430664	79.51	1.4444
1	431210	79.61	1.4444
1	431756	79.71	1.4444
1	432302	79.81	1.4444
1	432848	79.91	1.4444
1	433402	80.01	1.4444
1	433948	80.11	1.4444
1	434494	80.21	1.4444
1	435040	80.31	1.4444
1	435586	80.41	1.4444
1	436132	80.51	1.4444
1	436678	80.61	1.4444
1	437224	80.71	1.4444
1	437770	80.81	1.4444
1	438316	80.91	1.4444
1	438870	81.01	1.4444
1	439416	81.11	1.4444
1	439962	81.21	1.4444
1	440508	81.31	1.4444
1	441054	81.41	1.4444
1	441600	81.51	1.4444
1	442146	81.61	1.4444
1	442692	81.71	1.4444
1	443238	81.81	1.4444
1	443784	81.91	1.4444
1	444338	82.01	1.4444
1	444884	82.11	1.4444
1	445430	82.21	1.4444
1	445976	82.31	1.4444
1	446522	82.41	1.4444
1	447068	82.51	1.4444
1	447614	82.61	1.4444
1	448160	82.71	1.4444
1	448706	82.81	1.4444
1	449252	82.91	1.4444
1	449806	83.01	1.4444
1	450352	83.11	1.4444
1	450898	83.21	1.4444
1	451444	83.31	1.4444
1	451990	83.41	1.4444
1	452536	83.51	1.4444
1	453082	83.61	1.4444
1	453628	83.71	1.4444
1	454174	83.81	1.4444
1	454720	83.91	1.4444
1	455274	84.01	1.4444
1	455820	84.11	1.4444
1	456366	84.21	1.4444
1	456912	84.31	1.4444
1	457458	84.41	1.4444
1	458004	84.51	1.4444
1	458550	84.61	1.4444
1	459096	84.71	1.4444
1	459642	84.81	1.4444
1	460188	84.91	1.4444
1	460742	85.01	1.4444
1	461288	85.11	1.4444
1	461834	85.21	1.4444
1	462380	85.31	1.4444
1	462926	85.41	1.4444
1	463472	85.51	1.4444
1	464018	85.61	1.4444
1	464564	85.71	1.4444
1	465110	85.81	1.4444
1	465656	85.91	1.4444
1	466210	86.01	1.4444
1	466756	86.11	1.4444
1	467302	86.21	1.4444
1	467848	86.31	1.4444
1	468394	86.41	1.4444
1	468940	86.51	1.4444
1	469486	86.61	1.4444
1	470032	86.71	1.4444
1	470578	86.81	1.4444
1	471124	86.91	1.4444
1	471678	87.01	1.4444
1	472224	87.11	1.4444
1	472770	87.21	1.4444
1	473316	87.31	1.4444
1	473862	87.41	1.4444
1	474408	87.51	1.4444
1	474954	87.61	1.4444
1	475500	87.71	1.4444
1	476046	87.81	1.4444
1	476592	87.91	1.4444
1	477146	88.01	1.4444
1	477692	88.11	1.4444
1	478238	88.21	1.4444
1	478784	88.31	1.4444
1	479330	88.41	1.4444
1	479876	88.51	1.4444
1	480422	88.61	1.4444
1	480968	88.71	1.4444
1	481514	88.81	1.4444
1	482060	88.91	1.4444
1	482614	89.01	1.4444
1	483160	89.11	1.4444
1	483706	89.21	1.4444
1	484252	89.31	1.4444
1	484798	89.41	1.4444
1	485344	89.51	1.4444
1	485890	89.61	1.4444
1	486436	89.71	1.4444
1	486982	89.81	1.4444
1	487528	89.91	1.4444
1	488082	90.01	1.4444
1	488628	90.11	1.4444
1	489174	90.21	1.4444
1	489720	90.31	1.4444
1	490266	90.41	1.4444
1	490812	90.51	1.4444
1	491358	90.61	1.4444
1	491904	90.71	1.4444
1	492450	90.81	1.4444
1	492996	90.91	1.4444
1	493550	91.01	1.4444
1	494096	91.11	1.4444
1	494642	91.21	1.4444
1	495188	91.31	1.4444
1	495734	91.41	1.4444
1	496280	91.51	1.4444
1	496826	91.61	1.4444
1	497372	91.71	1.4444
1	497918	91.81	1.4444
1	498464	91.91	1.4444
1	499018	92.01	1.4444
1	499564	92.11	1.4444
1	500110	92.21	1.4444
1	500656	92.31	1.4444
1	501202	92.41	1.4444
1	501748	92.51	1.4444
1	502294	92.61	1.4444
1	502840	92.71	1.4444
1	503386	92.81	1.4444
1	503932	92.91	1.4444
1	504486	93.01	1.4444
1	505032	93.11	1.4444
1	505578	93.21	1.4444
1	506124	93.31	1.4444
1	506670	93.41	1.4444
1	507216	93.51	1.4444
1	507762	93.61	1.4444
1	508308	93.71	1.4444
1	508854	93.81	1.4444
1	509400	93.91	1.4444
1	509954	94.01	1.4444
1	510500	94.11	1.4444
1	511046	94.21	1.4444
1	511592	94.31	1.4444
1	512138	94.41	1.4444
1	512684	94.51	1.4444
1	513230	94.61	1.4444
1	513776	94.71	1.4444
1	514322	94.81	1.4444
1	514868	94.91	1.4444
1	515422	95.01	1.4444
1	515968	95.11	1.4444
1	516514	95.21	1.4444
1	517060	95.31	1.4444
1	517606	95.41	1.4444
1	518152	95.51	1.4444
1	518698	95.61	1.4444
1	519244	95.71	1.4444
1	519790	95.81	1.4444
1	520336	95.91	1.4444
1	520890	96.01	1.4444
1	521436	96.11	1.4444
1	521982	96.21	1.4444
1	522528	96.31	1.4444
1	523074	96.41	1.4444
1	523620	96.51	1.4444
1	524166	96.61	1.4444
1	524712	96.71	1.4444
1	525258	96.81	1.4444
1	525804	96.91	1.4444
1	526358	97.01	1.4444
1	526904	97.11	1.4444
1	527450	97.21	1.4444
1	527996	97.31	1.4444
1	528542	97.41	1.4444
1	529088	97.51	1.4444
1	529634	97.61	1.4444
1	530180	97.71	1.4444
1	530726	97.81	1.4444
1	531272	97.91	1.4444
1	531826	98.01	1.4444
1	532372	98.11	1.4444
1	532918	98.21	1.4444
1	533464	98.31	1.4444
1	534010	98.41	1.4444
1	534556	98.51	1.4444
1	535102	98.61	1.4444
1	535648	98.71	1.4444
1	536194	98.81	1.4444
1	536740	98.91	1.4444
1	537294	99.01	1.4444
1	537840	99.11	1.4444
1	538386	99.21	1.4444
1	538932	99.31	1.4444
1	539478	99.41	1.4444
1	540024	99.51	1.4444
1	540570	99.61	1.4444
1	541116	99.71	1.4444
1	541662	99.81	1.4444
1	542208	99.91	1.4444
2	113	1.11	0
2	659	1.21	0
2	1205	1.31	0
2	1751	1.41	0
2	2297	1.51	0
2	2843	1.61	0
2	3389	1.71	0
2	3935	1.81	0
2	4481	1.91	0
2	5035	2.01	0
2	5581	2.11	0
2	6127	2.21	0
2	6673	2.31	0
2	7219	2.41	0
2	7765	2.51	0
2	8311	2.61	0
2	8857	2.71	0
2	9403	2.81	0
2	9949	2.91	0
2	10503	3.01	0
2	11049	3.11	0
2	11595	3.21	0
2	12141	3.31	0
2	12687	3.41	0
2	13233	3.51	0
2	13779	3.61	0
2	14325	3.71	0
2	14871	3.81	0
2	15417	3.91	0
2	15971	4.01	0
2	16517	4.11	0
2	17063	4.21	0
2	17609	4.31	0
2	18155	4.41	0
2	18701	4.51	0
2	19247	4.61	0
2	19793	4.71	0
2	20339	4.81	0
2	20885	4.91	0
2	21439	5.01	0
2	21985	5.11	0
2	22531	5.21	0
2	23077	5.31	0
2	23623	5.41	0
2	24169	5.51	0
2	24715	5.61	0
2	25261	5.71	0
2	25807	5.81	0
2	26353	5.91	0
2	26907	6.01	0
2	27453	6.11	0
2	27999	6.21	0
2	28545	6.31	0
2	29091	6.41	0
2	29637	6.51	0
2	30183	6.61	0
2	30729	6.71	0
2	31275	6.81	0
2	31821	6.91	0
2	32375	7.01	0
2	32921	7.11	0
2	33467	7.21	0
2	34013	7.31	0
2	34559	7.41	0
2	35105	7.51	0
2	35651	7.61	0
2	36197	7.71	0
2	36743	7.81	0
2	37289	7.91	0
2	37843	8.01	0
2	38389	8.11	0
2	38935	8.21	0
2	39481	8.31	0
2	40027	8.41	0
2	40573	8.51	0
2	41119	8.61	0
2	41665	8.71	0
2	42211	8.81	0
2	42757	8.91	0
2	43311	9.01	0
2	43857	9.11	0
2	44403	9.21	0
2	44949	9.31	0
2	45495	9.41	0
2	46041	9.51	0
2	46587	9.61	0
2	47133	9.71	0
2	47679	9.81	0
2	48225	9.91	0
2	50642	10.01	0
2	51188	10.11	0
2	51734	10.21	0
2	52280	10.31	0
2	52826	10.41	0
2	53372	10.51	0
2	53918	10.61	0
2	54464	10.71	0
2	55010	10.81	0
2	55556	10.91	0
2	56110	11.01	0
2	56656	11.11	0
2	57202	11.21	0
2	57748	11.31	0
2	58294	11.41	0
2	58840	11.51	0
2	59386	11.61	0
2	59932	11.71	0
2	60478	11.81	0
2	61024	11.91	0
2	61578	12.01	0
2	62124	12.11	0
2	62670	12.21	0
2	63216	12.31	0
2	63762	12.41	0
2	64308	12.51	0
2	64854	12.61	0
2	65400	12.71	0
2	65946	12.81	0
2	66492	12.91	0
2	67046	13.01	0
2	67592	13.11	0
2	68138	13.21	0
2	68684	13.31	0
2	69230	13.41	0
2	69776	13.51	0
2	70322	13.61	0
2	70868	13.71	0
2	71414	13.81	0
2	71960	13.91	0
2	72514	14.01	0
2	73060	14.11	0
2	73606	14.21	0
2	74152	14.31	0
2	74698	14.41	0
2	75244	14.51	0
2	75790	14.61	0
2	76336	14.71	0
2	76882	14.81	0
2	77428	14.91	0
2	77982	15.01	0
2	78528	15.11	0
2	79074	15.21	0
2	79620	15.31	0
2	80166	15.41	0
2	80712	15.51	0
2	81258	15.61	0
2	81804	15.71	0
2	82350	15.81	0
2	82896	15.91	0
2	83450	16.01	0
2	83996	16.11	0
2	84542	16.21	0
2	85088	16.31	0
2	85634	16.41	0
2	86180	16.51	0
2	86726	16.61	0
2	87272	16.71	0
2	87818	16.81	0
2	88364	16.91	0
2	88918	17.01	0
2	89464	17.11	0
2	90010	17.21	0
2	90556	17.31	0
2	91102	17.41	0
2	91648	17.51	0
2	92194	17.61	0
2	92740	17.71	0
2	93286	17.81	0
2	93832	17.91	0
2	94386	18.01	0
2	94932	18.11	0
2	95478	18.21	0
2	96024	18.31	0
2	96570	18.41	0
2	97116	18.51	0
2	97662	18.61	0
2	98208	18.71	0
2	98754	18.81	0
2	99300	18.91	0
2	99854	19.01	0
2	100400	19.11	0
2	100946	19.21	0
2	101492	19.31	0
2	102038	19.41	0
2	102584	19.51	0
2	103130	19.61	0
2	103676	19.71	0
2	104222	19.81	0
2	104768	19.91	0
2	105322	20.01	0
2	105868	20.11	0
2	106414	20.21	0
2	106960	20.31	0
2	107506	20.41	0
2	108052	20.51	0
2	108598	20.61	0
2	109144	20.71	0
2	109690	20.81	0
2	110236	20.91	0
2	110790	21.01	0
2	111336	21.11	0
2	111882	21.21	0
2	112428	21.31	0
2	112974	21.41	0
2	113520	21.51	0
2	114066	21.61	0
2	114612	21.71	0
2	115158	21.81	0
2	115704	21.91	0
2	116258	22.01	0
2	116804	22.11	0
2	117350	22.21	0
2	117896	22.31	0
2	118442	22.41	0
2	118988	22.51	0
2	119534	22.61	0
2	120080	22.71	0
2	120626	22.81	0
2	121172	22.91	0
2	121726	23.01	0
2	122272	23.11	0
2	122818	23.21	0
2	123364	23.31	0
2	123910	23.41	0
2	124456	23.51	0
2	125002	23.61	0
2	125548	23.71	0
2	126094	23.81	0
2	126640	23.91	0
2	127194	24.01	0
2	127740	24.11	0
2	128286	24.21	0
2	128832	24.31	0
2	129378	24.41	0
2	129924	24.51	0
2	130470	24.61	0
2	131016	24.71	0
2	131562	24.81	0
2	132108	24.91	0
2	132662	25.01	0
2	133208	25.11	0
2	133754	25.21	0
2	134300	25.31	0
2	134846	25.41	0
2	135392	25.51	0
2	135938	25.61	0
2	136484	25.71	0
2	137030	25.81	0
2	137576	25.91	0
2	138130	26.01	0
2	138676	26.11	0
2	139222	26.21	0
2	139768	26.31	0
2	140314	26.41	0
2	140860	26.51	0
2	141406	26.61	0
2	141952	26.71	0
2	142498	26.81	0
2	143044	26.91	0
2	143598	27.01	0
2	144144	27.11	0
2	144690	27.21	0
2	145236	27.31	0
2	145782	27.41	0
2	146328	27.51	0
2	146874	27.61	0
2	147420	27.71	0
2	147966	27.81	0
2	148512	27.91	0
2	149066	28.01	0
2	149612	28.11	0
2	150158	28.21	0
2	150704	28.31	0
2	151250	28.41	0
2	151796	28.51	0
2	152342	28.61	0
2	152888	28.71	0
2	153434	28.81	0
2	153980	28.91	0
2	154534	29.01	0
2	155080	29.11	0
2	155626	29.21	0
2	156172	29.31	0
2	156718	29.41	0
2	157264	29.51	0
2	157810	29.61	0
2	158356	29.71	0
2	158902	29.81	0
2	159448	29.91	0
2	160002	30.01	0
2	160548	30.11	0
2	161094	30.21	0
2	161640	30.31	0
2	162186	30.41	0
2	162732	30.51	0
2	163278	30.61	0
2	163824	30.71	0
2	164370	30.81	0
2	164916	30.91	0
2	165470	31.01	0
2	166016	31.11	0
2	166562	31.21	0
2	167108	31.31	0
2	167654	31.41	0
2	168200	31.51	0
2	168746	31.61	0
2	169292	31.71	0
2	169838	31.81	0
2	170384	31.91	0
2	170938	32.01	0
2	171484	32.11	0
2	172030	32.21	0
2	172576	32.31	0
2	173122	32.41	0
2	173668	32.51	0
2	174214	32.61	0
2	174760	32.71	0
2	175306	32.81	0
2	175852	32.91	0
2	176406	33.01	0
2	176952	33.11	0
2	177498	33.21	0
2	178044	33.31	0
2	178590	33.41	0
2	179136	33.51	0
2	179682	33.61	0
2	180228	33.71	0
2	180774	33.81	0
2	181320	33.91	0
2	181874	34.01	0
2	182420	34.11	0
2	182966	34.21	0
2	183512	34.31	0
2	184058	34.41	0
2	184604	34.51	0
2	185150	34.61	0
2	185696	34.71	0
2	186242	34.81	0
2	186788	34.91	0
2	187342	35.01	0
2	187888	35.11	0
2	188434	35.21	0
2	188980	35.31	0
2	189526	35.41	0
2	190072	35.51	0
2	190618	35.61	0
2	191164	35.71	0
2	191710	35.81	0
2	192256	35.91	0
2	192810	36.01	0
2	193356	36.11	0
2	193902	36.21	0
2	194448	36.31	0
2	194994	36.41	0
2	195540	36.51	0
2	196086	36.61	0
2	196632	36.71	0
2	197178	36.81	0
2	197724	36.91	0
2	198278	37.01	0
2	198824	37.11	0
2	199370	37.21	0
2	199916	37.31	0
2	200462	37.41	0
2	201008	37.51	0
2	201554	37.61	0
2	202100	37.71	0
2	202646	37.81	0
2	203192	37.91	0
2	203746	38.01	0
2	204292	38.11	0
2	204838	38.21	0
2	205384	38.31	0
2	205930	38.41	0
2	206476	38.51	0
2	207022	38.61	0
2	207568	38.71	0
2	208114	38.81	0
2	208660	38.91	0
2	209214	39.01	0
2	209760	39.11	0
2	210306	39.21	0
2	210852	39.31	0
2	211398	39.41	0
2	211944	39.51	0
2	212490	39.61	0
2	213036	39.71	0
2	213582	39.81	0
2	214128	39.91	0
2	214682	40.01	0
2	215228	40.11	0
2	215774	40.21	0
2	216320	40.31	0
2	216866	40.41	0
2	217412	40.51	0
2	217958	40.61	0
2	218504	40.71	0
2	219050	40.81	0
2	219596	40.91	0
2	220150	41.01	0
2	220696	41.11	0
2	221242	41.21	0
2	221788	41.31	0
2	222334	41.41	0
2	222880	41.51	0
2	223426	41.61	0
2	223972	41.71	0
2	224518	41.81	0
2	225064	41.91	0
2	225618	42.01	0
2	226164	42.11	0
2	226710	42.21	0
2	227256	42.31	0
2	227802	42.41	0
2	228348	42.51	0
2	228894	42.61	0
2	229440	42.71	0
2	229986	42.81	0
2	230532	42.91	0
2	231086	43.01	0
2	231632	43.11	0
2	232178	43.21	0
2	232724	43.31	0
2	233270	43.41	0
2	233816	43.51	0
2	234362	43.61	0
2	234908	43.71	0
2	235454	43.81	0
2	236000	43.91	0
2	236554	44.01	0
2	237100	44.11	0
2	237646	44.21	0
2	238192	44.31	0
2	238738	44.41	0
2	239284	44.51	0
2	239830	44.61	0
2	240376	44.71	0
2	240922	44.81	0
2	241468	44.91	0
2	242022	45.01	0
2	242568	45.11	0
2	243114	45.21	0
2	243660	45.31	0
2	244206	45.41	0
2	244752	45.51	0
2	245298	45.61	0
2	245844	45.71	0
2	246390	45.81	0
2	246936	45.91	0
2	247490	46.01	0
2	248036	46.11	0
2	248582	46.21	0
2	249128	46.31	0
2	249674	46.41	0
2	250220	46.51	0
2	250766	46.61	0
2	251312	46.71	0
2	251858	46.81	0
2	252404	46.91	0
2	252958	47.01	0
2	253504	47.11	0
2	254050	47.21	0
2	254596	47.31	0
2	255142	47.41	0
2	255688	47.51	0
2	256234	47.61	0
2	256780	47.71	0
2	257326	47.81	0
2	257872	47.91	0
2	258426	48.01	0
2	258972	48.11	0
2	259518	48.21	0
2	260064	48.31	0
2	260610	48.41	0
2	261156	48.51	0
2	261702	48.61	0
2	262248	48.71	0
2	262794	48.81	0
2	263340	48.91	0
2	263894	49.01	0
2	264440	49.11	0
2	264986	49.21	0
2	265532	49.31	0
2	266078	49.41	0
2	266624	49.51	0
2	267170	49.61	0
2	267716	49.71	0
2	268262	49.81	0
2	268808	49.91	0
2	269362	50.01	0
2	269908	50.11	0
2	270454	50.21	0
2	271000	50.31	0
2	271546	50.41	0
2	272092	50.51	0
2	272638	50.61	0
2	273184	50.71	0
2	273730	50.81	0
2	274276	50.91	0
2	274830	51.01	0
2	275376	51.11	0
2	275922	51.21	0
2	276468	51.31	0
2	277014	51.41	0
2	277560	51.51	0
2	278106	51.61	0
2	278652	51.71	0
2	279198	51.81	0
2	279744	51.91	0
2	280298	52.01	0
2	280844	52.11	0
2	281390	52.21	0
2	281936	52.31	0
2	282482	52.41	0
2	283028	52.51	0
2	283574	52.61	0
2	284120	52.71	0
2	284666	52.81	0
2	285212	52.91	0
2	285766	53.01	0
2	286312	53.11	0
2	286858	53.21	0
2	287404	53.31	0
2	287950	53.41	0
2	288496	53.51	0
2	289042	53.61	0
2	289588	53.71	0
2	290134	53.81	0
2	290680	53.91	0
2	291234	54.01	0
2	291780	54.11	0
2	292326	54.21	0
2	292872	54.31	0
2	293418	54.41	0
2	293964	54.51	0
2	294510	54.61	0
2	295056	54.71	0
2	295602	54.81	0
2	296148	54.91	0
2	296702	55.01	0
2	297248	55.11	0
2	297794	55.21	0
2	298340	55.31	0
2	298886	55.41	0
2	299432	55.51	0
2	299978	55.61	0
2	300524	55.71	0
2	301070	55.81	0
2	301616	55.91	0
2	302170	56.01	0
2	302716	56.11	0
2	303262	56.21	0
2	303808	56.31	0
2	304354	56.41	0
2	304900	56.51	0
2	305446	56.61	0
2	305992	56.71	0
2	306538	56.81	0
2	307084	56.91	0
2	307638	57.01	0
2	308184	57.11	0
2	308730	57.21	0
2	309276	57.31	0
2	309822	57.41	0
2	310368	57.51	0
2	310914	57.61	0
2	311460	57.71	0
2	312006	57.81	0
2	312552	57.91	0
2	313106	58.01	0
2	313652	58.11	0
2	314198	58.21	0
2	314744	58.31	0
2	315290	58.41	0
2	315836	58.51	0
2	316382	58.61	0
2	316928	58.71	0
2	317474	58.81	0
2	318020	58.91	0
2	318574	59.01	0
2	319120	59.11	0
2	319666	59.21	0
2	320212	59.31	0
2	320758	59.41	0
2	321304	59.51	0
2	321850	59.61	0
2	322396	59.71	0
2	322942	59.81	0
2	323488	59.91	0
2	324042	60.01	0
2	324588	60.11	0
2	325134	60.21	0
2	325680	60.31	0
2	326226	60.41	0
2	326772	60.51	0
2	327318	60.61	0
2	327864	60.71	0
2	328410	60.81	0
2	328956	60.91	0
2	329510	61.01	0
2	330056	61.11	0
2	330602	61.21	0
2	331148	61.31	0
2	331694	61.41	0
2	332240	61.51	0
2	332786	61.61	0
2	333332	61.71	0
2	333878	61.81	0
2	334424	61.91	0
2	334978	62.01	0
2	335524	62.11	0
2	336070	62.21	0
2	336616	62.31	0
2	337162	62.41	0
2	337708	62.51	0
2	338254	62.61	0
2	338800	62.71	0
2	339346	62.81	0
2	339892	62.91	0
2	340446	63.01	0
2	340992	63.11	0
2	341538	63.21	0
2	342084	63.31	0
2	342630	63.41	0
2	343176	63.51	0
2	343722	63.61	0
2	344268	63.71	0
2	344814	63.81	0
2	345360	63.91	0
2	345914	64.01	0
2	346460	64.11	0
2	347006	64.21	0
2	347552	64.31	0
2	348098	64.41	0
2	348644	64.51	0
2	349190	64.61	0
2	349736	64.71	0
2	350282	64.81	0
2	350828	64.91	0
2	351382	65.01	0
2	351928	65.11	0
2	352474	65.21	0
2	353020	65.31	0
2	353566	65.41	0
2	354112	65.51	0
2	354658	65.61	0
2	355204	65.71	0
2	355750	65.81	0
2	356296	65.91	0
2	356850	66.01	0
2	357396	66.11	0
2	357942	66.21	0
2	358488	66.31	0
2	359034	66.41	0
2	359580	66.51	0
2	360126	66.61	0
2	360672	66.71	0
2	361218	66.81	0
2	361764	66.91	0
2	362318	67.01	0
2	362864	67.11	0
2	363410	67.21	0
2	363956	67.31	0
2	364502	67.41	0
2	365048	67.51	0
2	365594	67.61	0
2	366140	67.71	0
2	366686	67.81	0
2	367232	67.91	0
2	367786	68.01	0
2	368332	68.11	0
2	368878	68.21	0
2	369424	68.31	0
2	369970	68.41	0
2	370516	68.51	0
2	371062	68.61	0
2	371608	68.71	0
2	372154	68.81	0
2	372700	68.91	0
2	373254	69.01	0
2	373800	69.11	0
2	374346	69.21	0
2	374892	69.31	0
2	375438	69.41	0
2	375984	69.51	0
2	376530	69.61	0
2	377076	69.71	0
2	377622	69.81	0
2	378168	69.91	0
2	378722	70.01	0
2	379268	70.11	0
2	379814	70.21	0
2	380360	70.31	0
2	380906	70.41	0
2	381452	70.51	0
2	381998	70.61	0
2	382544	70.71	0
2	383090	70.81	0
2	383636	70.91	0
2	384190	71.01	0
2	384736	71.11	0
2	385282	71.21	0
2	385828	71.31	0
2	386374	71.41	0
2	386920	71.51	0
2	387466	71.61	0
2	388012	71.71	0
2	388558	71.81	0
2	389104	71.91	0
2	389658	72.01	0
2	390204	72.11	0
2	390750	72.21	0
2	391296	72.31	0
2	391842	72.41	0
2	392388	72.51	0
2	392934	72.61	0
2	393480	72.71	0
2	394026	72.81	0
2	394572	72.91	0
2	395126	73.01	0
2	395672	73.11	0
2	396218	73.21	0
2	396764	73.31	0
2	397310	73.41	0
2	397856	73.51	0
2	398402	73.61	0
2	398948	73.71	0
2	399494	73.81	0
2	400040	73.91	0
2	400594	74.01	0
2	401140	74.11	0
2	401686	74.21	0
2	402232	74.31	0
2	402778	74.41	0
2	403324	74.51	0
2	403870	74.61	0
2	404416	74.71	0
2	404962	74.81	0
2	405508	74.91	0
2	406062	75.01	0
2	406608	75.11	0
2	407154	75.21	0
2	407700	75.31	0
2	408246	75.41	0
2	408792	75.51	0
2	409338	75.61	0
2	409884	75.71	0
2	410430	75.81	0
2	410976	75.91	0
2	411530	76.01	0
2	412076	76.11	0
2	412622	76.21	0
2	413168	76.31	0
2	413714	76.41	0
2	414260	76.51	0
2	414806	76.61	0
2	415352	76.71	0
2	415898	76.81	0
2	416444	76.91	0
2	416998	77.01	0
2	417544	77.11	0
2	418090	77.21	0
2	418636	77.31	0
2	419182	77.41	0
2	419728	77.51	0
2	420274	77.61	0
2	420820	77.71	0
2	421366	77.81	0
2	421912	77.91	0
2	422466	78.01	0
2	423012	78.11	0
2	423558	78.21	0
2	424104	78.31	0
2	424650	78.41	0
2	425196	78.51	0
2	425742	78.61	0
2	426288	78.71	0
2	426834	78.81	0
2	427380	78.91	0
2	427934	79.01	0
2	428480	79.11	0
2	429026	79.21	0
2	429572	79.31	0
2	430118	79.41	0
2	430664	79.51	0
2	431210	79.61	0
2	431756	79.71	0
2	432302	79.81	0
2	432848	79.91	0
2	433402	80.01	0
2	433948	80.11	0
2	434494	80.21	0
2	435040	80.31	0
2	435586	80.41	0
2	436132	80.51	0
2	436678	80.61	0
2	437224	80.71	0
2	437770	80.81	0
2	438316	80.91	0
2	438870	81.01	0
2	439416	81.11	0
2	439962	81.21	0
2	440508	81.31	0
2	441054	81.41	0
2	441600	81.51	0
2	442146	81.61	0
2	442692	81.71	0
2	443238	81.81	0
2	443784	81.91	0
2	444338	82.01	0
2	444884	82.11	0
2	445430	82.21	0
2	445976	82.31	0
2	446522	82.41	0
2	447068	82.51	0
2	447614	82.61	0
2	448160	82.71	0
2	448706	82.81	0
2	449252	82.91	0
2	449806	83.01	0
2	450352	83.11	0
2	450898	83.21	0
2	451444	83.31	0
2	451990	83.41	0
2	452536	83.51	0
2	453082	83.61	0
2	453628	83.71	0
2	454174	83.81	0
2	454720	83.91	0
2	455274	84.01	0
2	455820	84.11	0
2	456366	84.21	0
2	456912	84.31	0
2	457458	84.41	0
2	458004	84.51	0
2	458550	84.61	0
2	459096	84.71	0
2	459642	84.81	0
2	460188	84.91	0
2	460742	85.01	0
2	461288	85.11	0
2	461834	85.21	0
2	462380	85.31	0
2	462926	85.41	0
2	463472	85.51	0
2	464018	85.61	0
2	464564	85.71	0
2	465110	85.81	0
2	465656	85.91	0
2	466210	86.01	0
2	466756	86.11	0
2	467302	86.21	0
2	467848	86.31	0
2	468394	86.41	0
2	468940	86.51	0
2	469486	86.61	0
2	470032	86.71	0
2	470578	86.81	0
2	471124	86.91	0
2	471678	87.01	0
2	472224	87.11	0
2	472770	87.21	0
2	473316	87.31	0
2	473862	87.41	0
2	474408	87.51	0
2	474954	87.61	0
2	475500	87.71	0
2	476046	87.81	0
2	476592	87.91	0
2	477146	88.01	0
2	477692	88.11	0
2	478238	88.21	0
2	478784	88.31	0
2	479330	88.41	0
2	479876	88.51	0
2	480422	88.61	0
2	480968	88.71	0
2	481514	88.81	0
2	482060	88.91	0
2	482614	89.01	0
2	483160	89.11	0
2	483706	89.21	0
2	484252	89.31	0
2	484798	89.41	0
2	485344	89.51	0
2	485890	89.61	0
2	486436	89.71	0
2	486982	89.81	0
2	487528	89.91	0
2	488082	90.01	0
2	488628	90.11	0
2	489174	90.21	0
2	489720	90.31	0
2	490266	90.41	0
2	490812	90.51	0
2	491358	90.61	0
2	491904	90.71	0
2	492450	90.81	0
2	492996	90.91	0
2	493550	91.01	0
2	494096	91.11	0
2	494642	91.21	0
2	495188	91.31	0
2	495734	91.41	0
2	496280	91.51	0
2	496826	91.61	0
2	497372	91.71	0
2	497918	91.81	0
2	498464	91.91	0
2	499018	92.01	0
2	499564	92.11	0
2	500110	92.21	0
2	500656	92.31	0
2	501202	92.41	0
2	501748	92.51	0
2	502294	92.61	0
2	502840	92.71	0
2	503386	92.81	0
2	503932	92.91	0
2	504486	93.01	0
2	505032	93.11	0
2	505578	93.21	0
2	506124	93.31	0
2	506670	93.41	0
2	507216	93.51	0
2	507762	93.61	0
2	508308	93.71	0
2	508854	93.81	0
2	509400	93.91	0
2	509954	94.01	0
2	510500	94.11	0
2	511046	94.21	0
2	511592	94.31	0
2	512138	94.41	0
2	512684	94.51	0
2	513230	94.61	0
2	513776	94.71	0
2	514322	94.81	0
2	514868	94.91	0
2	515422	95.01	0
2	515968	95.11	0
2	516514	95.21	0
2	517060	95.31	0
2	517606	95.41	0
2	518152	95.51	0
2	518698	95.61	0
2	519244	95.71	0
2	519790	95.81	0
2	520336	95.91	0
2	520890	96.01	0
2	521436	96.11	0
2	521982	96.21	0
2	522528	96.31	0
2	523074	96.41	0
2	523620	96.51	0
2	524166	96.61	0
2	524712	96.71	0
2	525258	96.81	0
2	525804	96.91	0
2	526358	97.01	0
2	526904	97.11	0
2	527450	97.21	0
2	527996	97.31	0
2	528542	97.41	0
2	529088	97.51	0
2	529634	97.61	0
2	530180	97.71	0
2	530726	97.81	0
2	531272	97.91	0
2	531826	98.01	0
2	532372	98.11	0
2	532918	98.21	0
2	533464	98.31	0
2	534010	98.41	0
2	534556	98.51	0
2	535102	98.61	0
2	535648	98.71	0
2	536194	98.81	0
2	536740	98.91	0
2	537294	99.01	0
2	537840	99.11	0
2	538386	99.21	0
2	538932	99.31	0
2	539478	99.41	0
2	540024	99.51	0
2	540570	99.61	0
2	541116	99.71	0
2	541662	99.81	0
2	542208	99.91	0
3	113	1.11	-0.000716383
3	659	1.21	-0.00136341
3	1205	1.31	-0.00186974
3	1751	1.41	-0.00225157
3	2297	1.51	-0.00252443
3	2843	1.61	-0.00270298
3	3389	1.71	-0.00280098
3	3935	1.81	-0.00283113
3	4481	1.91	-0.00280509
3	5035	2.01	-0.00273342
3	5581	2.11	-0.00262559
3	6127	2.21	-0.00249005
3	6673	2.31	-0.00233419
3	7219	2.41	-0.00216447
3	7765	2.51	-0.00198642
3	8311	2.61	-0.00180472
3	8857	2.71	-0.0016233
3	9403	2.81	-0.00144536
3	9949	2.91	-0.00127346
3	10503	3.01	-0.0011096
3	11049	3.11	-0.000955278
3	11595	3.21	-0.000811546
3	12141	3.31	-0.00067908
3	12687	3.41	-0.000558232
3	13233	3.51	-0.000449082
3	13779	3.61	-0.000351487
3	14325	3.71	-0.00026512
3	14871	3.81	-0.000189514
3	15417	3.91	-0.000124092
3	15971	4.01	-6.81972e-05
3	16517	4.11	-2.11209e-05
3	17063	4.21	1.78769e-05
3	17609	4.31	4.9548e-05
3	18155	4.41	7.46407e-05
3	18701	4.51	9.38867e-05
3	19247	4.61	0.000107991
3	19793	4.71	0.000117625
3	20339	4.81	0.000123418
3	20885	4.91	0.000125957
3	21439	5.01	0.000125781
3	21985	5.11	0.00012338
3	22531	5.21	0.000119198
3	23077	5.31	0.000113629
3	23623	5.41	0.000107022
3	24169	5.51	9.96832e-05
3	24715	5.61	9.18747e-05
3	25261	5.71	8.38211e-05
3	25807	5.81	7.57109e-05
3	26353	5.91	6.76999e-05
3	26907	6.01	5.99137e-05
3	27453	6.11	5.24518e-05
3	27999	6.21	4.53896e-05
3	28545	6.31	3.87821e-05
3	29091	6.41	3.2666e-05
3	29637	6.51	2.70628e-05
3	30183	6.61	2.19809e-05
3	30729	6.71	1.74176e-05
3	31275	6.81	1.33618e-05
3	31821	6.91	9.79494e-06
3	32375	7.01	6.6932e-06
3	32921	7.11	4.02864e-06
3	33467	7.21	1.77051e-06
3	34013	7.31	-1.13691e-07
3	34559	7.41	-1.65736e-06
3	35105	7.51	-2.89397e-06
3	35651	7.61	-3.85652e-06
3	36197	7.71	-4.57698e-06
3	36743	7.81	-5.08591e-06
3	37289	7.91	-5.41219e-06
3	37843	8.01	-5.58279e-06
3	38389	8.11	-5.6226e-06
3	38935	8.21	-5.55442e-06
3	39481	8.31	-5.39886e-06
3	40027	8.41	-5.17441e-06
3	40573	8.51	-4.89748e-06
3	41119	8.61	-4.58246e-06
3	41665	8.71	-4.24184e-06
3	42211	8.81	-3.88634e-06
3	42757	8.91	-3.52499e-06
3	43311	9.01	-3.16534e-06
3	43857	9.11	-2.81353e-06
3	44403	9.21	-2.47446e-06
3	44949	9.31	-2.15192e-06
3	45495	9.41	-1.84873e-06
3	46041	9.51	-1.56685e-06
3	46587	9.61	-1.30751e-06
3	47133	9.71	-1.0713e-06
3	47679	9.81	-8.58321e-07
3	48225	9.91	-6.68206e-07
3	50642	10.01	-5.0026e-07
3	51188	10.11	-3.53514e-07
3	51734	10.21	-2.2679e-07
3	52280	10.31	-1.18765e-07
3	52826	10.41	-2.80163e-08
3	53372	10.51	4.6931e-08
3	53918	10.61	1.07573e-07
3	54464	10.71	1.55391e-07
3	55010	10.81	1.91831e-07
3	55556	10.91	2.18284e-07
3	56110	11.01	2.3607e-07
3	56656	11.11	2.46427e-07
3	57202	11.21	2.50502e-07
3	57748	11.31	2.49353e-07
3	58294	11.41	2.43938e-07
3	58840	11.51	2.3512e-07
3	59386	11.61	2.23669e-07
3	59932	11.71	2.10264e-07
3	60478	11.81	1.95496e-07
3	61024	11.91	1.79874e-07
3	61578	12.01	1.63833e-07
3	62124	12.11	1.47736e-07
3	62670	12.21	1.3188e-07
3	63216	12.31	1.16508e-07
3	63762	12.41	1.01807e-07
3	64308	12.51	8.79222e-08
3	64854	12.61	7.49541e-08
3	65400	12.71	6.29711e-08
3	65946	12.81	5.20114e-08
3	66492	12.91	4.20883e-08
3	67046	13.01	3.3193e-08
3	67592	13.11	2.53003e-08
3	68138	13.21	1.83718e-08
3	68684	13.31	1.23581e-08
3	69230	13.41	7.20348e-09
3	69776	13.51	2.84537e-09
3	70322	13.61	-7.80886e-10
3	70868	13.71	-3.74136e-09
3	71414	13.81	-6.10285e-09
3	71960	13.91	-7.93072e-09
3	72514	14.01	-9.28821e-09
3	73060	14.11	-1.0235e-08
3	73606	14.21	-1.08283e-08
3	74152	14.31	-1.11211e-08
3	74698	14.41	-1.11612e-08
3	75244	14.51	-1.09946e-08
3	75790	14.61	-1.06599e-08
3	76336	14.71	-1.01945e-08
3	76882	14.81	-9.62999e-09
3	77428	14.91	-8.99405e-09
3	77982	15.01	-8.31086e-09
3	78528	15.11	-7.60103e-09
3	79074	15.21	-6.88338e-09
3	79620	15.31	-6.17071e-09
3	80166	15.41	-5.47544e-09
3	80712	15.51	-4.80682e-09
3	81258	15.61	-4.17266e-09
3	81804	15.71	-3.57687e-09
3	82350	15.81	-3.02443e-09
3	82896	15.91	-2.51674e-09
3	83450	16.01	-2.05489e-09
3	83996	16.11	-1.63958e-09
3	84542	16.21	-1.26903e-09
3	85088	16.31	-9.42535e-10
3	85634	16.41	-6.57963e-10
3	86180	16.51	-4.1247e-10
3	86726	16.61	-2.04636e-10
3	87272	16.71	-2.91323e-11
3	87818	16.81	1.14753e-10
3	88364	16.91	2.30926e-10
3	88918	17.01	3.22231e-10
3	89464	17.11	3.91154e-10
3	90010	17.21	4.40892e-10
3	90556	17.31	4.73577e-10
3	91102	17.41	4.92051e-10
3	91648	17.51	4.98446e-10
3	92194	17.61	4.94893e-10
3	92740	17.71	4.82814e-10
3	93286	17.81	4.6434e-10
3	93832	17.91	4.40892e-10
3	94386	18.01	4.13536e-10
3	94932	18.11	3.83693e-10
3	95478	18.21	3.51719e-10
3	96024	18.31	3.19744e-10
3	96570	18.41	2.8777e-10
3	97116	18.51	2.55795e-10
3	97662	18.61	2.25953e-10
3	98208	18.71	1.97531e-10
3	98754	18.81	1.6982e-10
3	99300	18.91	1.44951e-10
3	99854	19.01	1.21503e-10
3	100400	19.11	1.00187e-10
3	100946	19.21	8.10019e-11
3	101492	19.31	6.32383e-11
3	102038	19.41	4.86722e-11
3	102584	19.51	3.44613e-11
3	103130	19.61	2.34479e-11
3	103676	19.71	1.27898e-11
3	104222	19.81	4.9738e-12
3	104768	19.91	-2.13163e-12
3	105322	20.01	-8.17124e-12
3	105868	20.11	-1.1724e-11
3	106414	20.21	-1.52767e-11
3	106960	20.31	-1.88294e-11
3	107506	20.41	-2.02505e-11
3	108052	20.51	-2.02505e-11
3	108598	20.61	-2.02505e-11
3	109144	20.71	-2.02505e-11
3	109690	20.81	-2.02505e-11
3	110236	20.91	-2.02505e-11
3	110790	21.01	-2.02505e-11
3	111336	21.11	-2.02505e-11
3	111882	21.21	-2.02505e-11
3	112428	21.31	-1.88294e-11
3	112974	21.41	-1.7053e-11
3	113520	21.51	-1.52767e-11
3	114066	21.61	-1.38556e-11
3	114612	21.71	-1.24345e-11
3	115158	21.81	-1.13687e-11
3	115704	21.91	-1.03029e-11
3	116258	22.01	-9.23706e-12
3	116804	22.11	-8.52651e-12
3	117350	22.21	-7.4607e-12
3	117896	22.31	-6.75016e-12
3	118442	22.41	-6.03961e-12
3	118988	22.51	-5.68434e-12
3	119534	22.61	-4.9738e-12
3	120080	22.71	-4.61853e-12
3	120626	22.81	-4.26326e-12
3	121172	22.91	-3.90799e-12
3	121726	23.01	-3.55271e-12
3	122272	23.11	-3.19744e-12
3	122818	23.21	-2.84217e-12
3	123364	23.31	-2.4869e-12
3	123910	23.41	-2.13163e-12
3	124456	23.51	-2.13163e-12
3	125002	23.61	-1.77636e-12
3	125548	23.71	-1.77636e-12
3	126094	23.81	-1.42109e-12
3	126640	23.91	-1.42109e-12
3	127194	24.01	-1.06581e-12
3	127740	24.11	-1.06581e-12
3	128286	24.21	-1.06581e-12
3	128832	24.31	-1.06581e-12
3	129378	24.41	-7.10543e-13
3	129924	24.51	-7.10543e-13
3	130470	24.61	-7.10543e-13
3	131016	24.71	-7.10543e-13
3	131562	24.81	-7.10543e-13
3	132108	24.91	-3.55271e-13
3	132662	25.01	-3.55271e-13
3	133208	25.11	-3.55271e-13
3	133754	25.21	-3.55271e-13
3	134300	25.31	-3.55271e-13
3	134846	25.41	-3.55271e-13
3	135392	25.51	-3.55271e-13
3	135938	25.61	-3.55271e-13
3	136484	25.71	-3.55271e-13
3	137030	25.81	-3.55271e-13
3	137576	25.91	0
3	138130	26.01	0
3	138676	26.11	0
3	139222	26.21	0
3	139768	26.31	0
3	140314	26.41	0
3	140860	26.51	0
3	141406	26.61	0
3	141952	26.71	0
3	142498	26.81	0
3	143044	26.91	0
3	143598	27.01	0
3	144144	27.11	0
3	144690	27.21	0
3	145236	27.31	0
3	145782	27.41	0
3	146328	27.51	0
3	146874	27.61	0
3	147420	27.71	0
3	147966	27.81	0
3	148512	27.91	0
3	149066	28.01	0
3	149612	28.11	0
3	150158	28.21	0
3	150704	28.31	0
3	151250	28.41	0
3	151796	28.51	0
3	152342	28.61	0
3	152888	28.71	0
3	153434	28.81	0
3	153980	28.91	0
3	154534	29.01	0
3	155080	29.11	0
3	155626	29.21	0
3	156172	29.31	0
3	156718	29.41	0
3	157264	29.51	0
3	157810	29.61	0
3	158356	29.71	0
3	158902	29.81	0
3	159448	29.91	0
3	160002	30.01	0
3	160548	30.11	0
3	161094	30.21	0
3	161640	30.31	0
3	162186	30.41	0
3	162732	30.51	0
3	163278	30.61	0
3	163824	30.71	0
3	164370	30.81	0
3	164916	30.91	0
3	165470	31.01	0
3	166016	31.11	0
3	166562	31.21	0
3	167108	31.31	0
3	167654	31.41	0
3	168200	31.51	0
3	168746	31.61	0
3	169292	31.71	0
3	169838	31.81	0
3	170384	31.91	0
3	170938	32.01	0
3	171484	32.11	0
3	172030	32.21	0
3	172576	32.31	0
3	173122	32.41	0
3	173668	32.51	0
3	174214	32.61	0
3	174760	32.71	0
3	175306	32.81	0
3	175852	32.91	0
3	176406	33.01	0
3	176952	33.11	0
3	177498	33.21	0
3	178044	33.31	0
3	178590	33.41	0
3	179136	33.51	0
3	179682	33.61	0
3	180228	33.71	0
3	180774	33.81	0
3	181320	33.91	0
3	181874	34.01	0
3	182420	34.11	0
3	182966	34.21	0
3	183512	34.31	0
3	184058	34.41	0
3	184604	34.51	0
3	185150	34.61	0
3	185696	34.71	0
3	186242	34.81	0
3	186788	34.91	0
3	187342	35.01	0
3	187888	35.11	0
3	188434	35.21	0
3	188980	35.31	0
3	189526	35.41	0
3	190072	35.51	0
3	190618	35.61	0
3	191164	35.71	0
3	191710	35.81	0
3	192256	35.91	0
3	192810	36.01	0
3	193356	36.11	0
3	193902	36.21	0
3	194448	36.31	0
3	194994	36.41	0
3	195540	36.51	0
3	196086	36.61	0
3	196632	36.71	0
3	197178	36.81	0
3	197724	36.91	0
3	198278	37.01	0
3	198824	37.11	0
3	199370	37.21	0
3	199916	37.31	0
3	200462	37.41	0
3	201008	37.51	0
3	201554	37.61	0
3	202100	37.71	0
3	202646	37.81	0
3	203192	37.91	0
3	203746	38.01	0
3	204292	38.11	0
3	204838	38.21	0
3	205384	38.31	0
3	205930	38.41	0
3	206476	38.51	0
3	207022	38.61	0
3	207568	38.71	0
3	208114	38.81	0
3	208660	38.91	0
3	209214	39.01	0
3	209760	39.11	0
3	210306	39.21	0
3	210852	39.31	0
3	211398	39.41	0
3	211944	39.51	0
3	212490	39.61	0
3	213036	39.71	0
3	213582	39.81	0
3	214128	39.91	0
3	214682	40.01	0
3	215228	40.11	0
3	215774	40.21	0
3	216320	40.31	0
3	216866	40.41	0
3	217412	40.51	0
3	217958	40.61	0
3	218504	40.71	0
3	219050	40.81	0
3	219596	40.91	0
3	220150	41.01	0
3	220696	41.11	0
3	221242	41.21	0
3	221788	41.31	0
3	222334	41.41	0
3	222880	41.51	0
3	223426	41.61	0
3	223972	41.71	0
3	224518	41.81	0
3	225064	41.91	0
3	225618	42.01	0
3	226164	42.11	0
3	226710	42.21	0
3	227256	42.31	0
3	227802	42.41	0
3	228348	42.51	0
3	228894	42.61	0
3	229440	42.71	0
3	229986	42.81	0
3	230532	42.91	0
3	231086	43.01	0
3	231632	43.11	0
3	232178	43.21	0
3	232724	43.31	0
3	233270	43.41	0
3	233816	43.51	0
3	234362	43.61	0
3	234908	43.71	0
3	235454	43.81	0
3	236000	43.91	0
3	236554	44.01	0
3	237100	44.11	0
3	237646	44.21	0
3	238192	44.31	0
3	238738	44.41	0
3	239284	44.51	0
3	239830	44.61	0
3	240376	44.71	0
3	240922	44.81	0
3	241468	44.91	0
3	242022	45.01	0
3	242568	45.11	0
3	243114	45.21	0
3	243660	45.31	0
3	244206	45.41	0
3	244752	45.51	0
3	245298	45.61	0
3	245844	45.71	0
3	246390	45.81	0
3	246936	45.91	0
3	247490	46.01	0
3	248036	46.11	0
3	248582	46.21	0
3	249128	46.31	0
3	249674	46.41	0
3	250220	46.51	0
3	250766	46.61	0
3	251312	46.71	0
3	251858	46.81	0
3	252404	46.91	0
3	252958	47.01	0
3	253504	47.11	0
3	254050	47.21	0
3	254596	47.31	0
3	255142	47.41	0
3	255688	47.51	0
3	256234	47.61	0
3	256780	47.71	0
3	257326	47.81	0
3	257872	47.91	0
3	258426	48.01	0
3	258972	48.11	0
3	259518	48.21	0
3	260064	48.31	0
3	260610	48.41	0
3	261156	48.51	0
3	261702	48.61	0
3	262248	48.71	0
3	262794	48.81	0
3	263340	48.91	0
3	263894	49.01	0
3	264440	49.11	0
3	264986	49.21	0
3	265532	49.31	0
3	266078	49.41	0
3	266624	49.51	0
3	267170	49.61	0
3	267716	49.71	0
3	268262	49.81	0
3	268808	49.91	0
3	269362	50.01	0
3	269908	50.11	0
3	270454	50.21	0
3	271000	50.31	0
3	271546	50.41	0
3	272092	50.51	0
3	272638	50.61	0
3	273184	50.71	0
3	273730	50.81	0
3	274276	50.91	0
3	274830	51.01	0
3	275376	51.11	0
3	275922	51.21	0
3	276468	51.31	0
3	277014	51.41	0
3	277560	51.51	0
3	278106	51.61	0
3	278652	51.71	0
3	279198	51.81	0
3	279744	51.91	0
3	280298	52.01	0
3	280844	52.11	0
3	281390	52.21	0
3	281936	52.31	0
3	282482	52.41	0
3	283028	52.51	0
3	283574	52.61	0
3	284120	52.71	0
3	284666	52.81	0
3	285212	52.91	0
3	285766	53.01	0
3	286312	53.11	0
3	286858	53.21	0
3	287404	53.31	0
3	287950	53.41	0
3	288496	53.51	0
3	289042	53.61	0
3	289588	53.71	0
3	290134	53.81	0
3	290680	53.91	0
3	291234	54.01	0
3	291780	54.11	0
3	292326	54.21	0
3	292872	54.31	0
3	293418	54.41	0
3	293964	54.51	0
3	294510	54.61	0
3	295056	54.71	0
3	295602	54.81	0
3	296148	54.91	0
3	296702	55.01	0
3	297248	55.11	0
3	297794	55.21	0
3	298340	55.31	0
3	298886	55.41	0
3	299432	55.51	0
3	299978	55.61	0
3	300524	55.71	0
3	301070	55.81	0
3	301616	55.91	0
3	302170	56.01	0
3	302716	56.11	0
3	303262	56.21	0
3	303808	56.31	0
3	304354	56.41	0
3	304900	56.51	0
3	305446	56.61	0
3	305992	56.71	0
3	306538	56.81	0
3	307084	56.91	0
3	307638	57.01	0
3	308184	57.11	0
3	308730	57.21	0
3	309276	57.31	0
3	309822	57.41	0
3	310368	57.51	0
3	310914	57.61	0
3	311460	57.71	0
3	312006	57.81	0
3	312552	57.91	0
3	313106	58.01	0
3	313652	58.11	0
3	314198	58.21	0
3	314744	58.31	0
3	315290	58.41	0
3	315836	58.51	0
3	316382	58.61	0
3	316928	58.71	0
3	317474	58.81	0
3	318020	58.91	0
3	318574	59.01	0
3	319120	59.11	0
3	319666	59.21	0
3	320212	59.31	0
3	320758	59.41	0
3	321304	59.51	0
3	321850	59.61	0
3	322396	59.71	0
3	322942	59.81	0
3	323488	59.91	0
3	324042	60.01	0
3	324588	60.11	0
3	325134	60.21	0
3	325680	60.31	0
3	326226	60.41	0
3	326772	60.51	0
3	327318	60.61	0
3	327864	60.71	0
3	328410	60.81	0
3	328956	60.91	0
3	329510	61.01	0
3	330056	61.11	0
3	330602	61.21	0
3	331148	61.31	0
3	331694	61.41	0
3	332240	61.51	0
3	332786	61.61	0
3	333332	61.71	0
3	333878	61.81	0
3	334424	61.91	0
3	334978	62.01	0
3	335524	62.11	0
3	336070	62.21	0
3	336616	62.31	0
3	337162	62.41	0
3	337708	62.51	0
3	338254	62.61	0
3	338800	62.71	0
3	339346	62.81	0
3	339892	62.91	0
3	340446	63.01	0
3	340992	63.11	0
3	341538	63.21	0
3	342084	63.31	0
3	342630	63.41	0
3	343176	63.51	0
3	343722	63.61	0
3	344268	63.71	0
3	344814	63.81	0
3	345360	63.91	0
3	345914	64.01	0
3	346460	64.11	0
3	347006	64.21	0
3	347552	64.31	0
3	348098	64.41	0
3	348644	64.51	0
3	349190	64.61	0
3	349736	64.71	0
3	350282	64.81	0
3	350828	64.91	0
3	351382	65.01	0
3	351928	65.11	0
3	352474	65.21	0
3	353020	65.31	0
3	353566	65.41	0
3	354112	65.51	0
3	354658	65.61	0
3	355204	65.71	0
3	355750	65.81	0
3	356296	65.91	0
3	356850	66.01	0
3	357396	66.11	0
3	357942	66.21	0
3	358488	66.31	0
3	359034	66.41	0
3	359580	66.51	0
3	360126	66.61	0
3	360672	66.71	0
3	361218	66.81	0
3	361764	66.91	0
3	362318	67.01	0
3	362864	67.11	0
3	363410	67.21	0
3	363956	67.31	0
3	364502	67.41	0
3	365048	67.51	0
3	365594	67.61	0
3	366140	67.71	0
3	366686	67.81	0
3	367232	67.91	0
3	367786	68.01	0
3	368332	68.11	0
3	368878	68.21	0
3	369424	68.31	0
3	369970	68.41	0
3	370516	68.51	0
3	371062	68.61	0
3	371608	68.71	0
3	372154	68.81	0
3	372700	68.91	0
3	373254	69.01	0
3	373800	69.11	0
3	374346	69.21	0
3	374892	69.31	0
3	375438	69.41	0
3	375984	69.51	0
3	376530	69.61	0
3	377076	69.71	0
3	377622	69.81	0
3	378168	69.91	0
3	378722	70.01	0
3	379268	70.11	0
3	379814	70.21	0
3	380360	70.31	0
3	380906	70.41	0
3	381452	70.51	0
3	381998	70.61	0
3	382544	70.71	0
3	383090	70.81	0
3	383636	70.91	0
3	384190	71.01	0
3	384736	71.11	0
[...]
105	438624	81	0.024969637882
105	444092	82	0.024969170938
105	449560	83	0.024981703998
105	455028	84	0.024968237052
105	460496	85	0.024967770108
105	465964	86	0.024967303154
105	471432	87	0.024966836203
105	476900	88	0.024979369252
105	482368	89	0.024965902292
105	487836	90	0.024965435338
105	493304	91	0.024977968375
105	498772	92	0.024964501414
105	504240	93	0.024977034449
105	509708	94	0.024963567488
105	515176	95	0.024976100521
105	520644	96	0.024962633558
105	526112	97	0.024975166587
105	531580	98	0.024961699622
105	537048	99	0.024974232651
105	542516	100	0.024973765682
106	4789	2	0
106	10257	3	0
106	15725	4	0
106	21193	5	0
106	26661	6	0
106	32129	7	0
106	37597	8	0
106	43065	9	0
106	48534	10	0
106	55864	11	0
106	61332	12	0
106	66800	13	0
106	72268	14	0
106	77736	15	0
106	83204	16	0
106	88672	17	0
106	94140	18	0
106	99608	19	0
106	105076	20	0
106	110544	21	0
106	116012	22	0
106	121480	23	0
106	126948	24	0
106	132416	25	0
106	137884	26	0
106	143352	27	0
106	148820	28	0
106	154288	29	0
106	159756	30	0
106	165224	31	0
106	170692	32	0
106	176160	33	0
106	181628	34	0
106	187096	35	0
106	192564	36	0
106	198032	37	0
106	203500	38	0
106	208968	39	0
106	214436	40	0
106	219904	41	0
106	225372	42	0
106	230840	43	0
106	236308	44	0
106	241776	45	0
106	247244	46	0
106	252712	47	0
106	258180	48	0
106	263648	49	0
106	269116	50	0
106	274584	51	0
106	280052	52	0
106	285520	53	0
106	290988	54	0
106	296456	55	0
106	301924	56	0
106	307392	57	0
106	312860	58	0
106	318328	59	0
106	323796	60	0
106	329264	61	0
106	334732	62	0
106	340200	63	0
106	345668	64	0
106	351136	65	0
106	356604	66	0
106	362072	67	0
106	367540	68	0
106	373008	69	0
106	378476	70	0
106	383944	71	0
106	389412	72	0
106	394880	73	0
106	400348	74	0
106	405816	75	0
106	411284	76	0
106	416752	77	0
106	422220	78	0
106	427688	79	0
106	433156	80	0
106	438624	81	0
106	444092	82	0
106	449560	83	0
106	455028	84	0
106	460496	85	0
106	465964	86	0
106	471432	87	0
106	476900	88	0
106	482368	89	0
106	487836	90	0
106	493304	91	0
106	498772	92	0
106	504240	93	0
106	509708	94	0
106	515176	95	0
106	520644	96	0
106	526112	97	0
106	531580	98	0
106	537048	99	0
106	542516	100	0
107	4790	2	5
107	10258	3	5
107	15726	4	5
107	21194	5	5
107	26662	6	5
107	32130	7	5
107	37598	8	5
107	43066	9	5
107	48535	10	5
107	55865	11	5
107	61333	12	5
107	66801	13	5
107	72269	14	5
107	77737	15	5
107	83205	16	5
107	88673	17	5
107	94141	18	5
107	99609	19	5
107	105077	20	5
107	110545	21	5
107	116013	22	5
107	121481	23	5
107	126949	24	5
107	132417	25	5
107	137885	26	5
107	143353	27	5
107	148821	28	5
107	154289	29	5
107	159757	30	5
107	165225	31	5
107	170693	32	5
107	176161	33	5
107	181629	34	5
107	187097	35	5
107	192565	36	5
107	198033	37	5
107	203501	38	5
107	208969	39	5
107	214437	40	5
107	219905	41	5
107	225373	42	5
107	230841	43	5
107	236309	44	5
107	241777	45	5
107	247245	46	5
107	252713	47	5
107	258181	48	5
107	263649	49	5
107	269117	50	5
107	274585	51	5
107	280053	52	5
107	285521	53	5
107	290989	54	5
107	296457	55	5
107	301925	56	5
107	307393	57	5
107	312861	58	5
107	318329	59	5
107	323797	60	5
107	329265	61	5
107	334733	62	5
107	340201	63	5
107	345669	64	5
107	351137	65	5
107	356605	66	5
107	362073	67	5
107	367541	68	5
107	373009	69	5
107	378477	70	5
107	383945	71	5
107	389413	72	5
107	394881	73	5
107	400349	74	5
107	405817	75	5
107	411285	76	5
107	416753	77	5
107	422221	78	5
107	427689	79	5
107	433157	80	5
107	438625	81	5
107	444093	82	5
107	449561	83	5
107	455029	84	5
107	460497	85	5
107	465965	86	5
107	471433	87	5
107	476901	88	5
107	482369	89	5
107	487837	90	5
107	493305	91	5
107	498773	92	5
107	504241	93	5
107	509709	94	5
107	515177	95	5
107	520645	96	5
107	526113	97	5
107	531581	98	5
107	537049	99	5
107	542517	100	5
108	4790	2	0.021463536928
108	10258	3	0.024964796484
108	15726	4	0.024977796553
108	21194	5	0.024964796594
108	26662	6	0.024977796621
108	32130	7	0.024964796651
108	37598	8	0.02496479666
108	43066	9	0.024977796669
108	48535	10	0.024964796677
108	55865	11	0.02691373506
108	61333	12	0.024977658688
108	66801	13	0.024964389327
108	72269	14	0.024976753233
108	77737	15	0.024962822204
108	83205	16	0.024974730826
108	88673	17	0.024973782311
108	94141	18	0.024960116473
108	99609	19	0.024972695281
108	105077	20	0.024972450815
108	110545	21	0.024972321408
108	116013	22	0.024972269602
108	121481	23	0.024959386341
108	126949	24	0.024972609284
108	132417	25	0.024972879282
108	137885	26	0.024973147357
108	143353	27	0.024960413933
108	148821	28	0.02497367068
108	154289	29	0.02497390421
108	159757	30	0.024974096868
108	165225	31	0.024961253296
108	170693	32	0.024974383159
108	176161	33	0.024974408136
108	181629	34	0.02496141704
108	187097	35	0.024974410792
108	192565	36	0.02497434208
108	198033	37	0.024961215021
108	203501	38	0.024974113514
108	208969	39	0.024973967865
108	214437	40	0.024960720542
108	219905	41	0.024973445787
108	225373	42	0.024973129815
108	230841	43	0.024972775926
108	236309	44	0.024959473195
108	241777	45	0.024972128085
108	247245	46	0.02497175
108	252713	47	0.024971368827
108	258181	48	0.024970985249
108	263649	49	0.024970599749
108	269117	50	0.024970212665
108	274585	51	0.024969824211
108	280053	52	0.024969434553
108	285521	53	0.024969043845
108	290989	54	0.024968652187
108	296457	55	0.024968259705
108	301925	56	0.024967866471
108	307393	57	0.024980472572
108	312861	58	0.024967078066
108	318329	59	0.02496668302
108	323797	60	0.024966287495
108	329265	61	0.024978890654
108	334733	62	0.024965479208
108	340201	63	0.024965043798
108	345669	64	0.024977579686
108	351137	65	0.02496410987
108	356605	66	0.024976641791
108	362073	67	0.024963174817
108	367541	68	0.024975708059
108	373009	69	0.024962241224
108	378477	70	0.024974774315
108	383945	71	0.024974307402
108	389413	72	0.024960840473
108	394881	73	0.024973373547
108	400349	74	0.02497290662
108	405817	75	0.024972439683
108	411285	76	0.024971972751
108	416753	77	0.024971505807
108	422221	78	0.024958038869
108	427689	79	0.024970571921
108	433157	80	0.024970104973
108	438625	81	0.024969638025
108	444093	82	0.024969171067
108	449561	83	0.024981704115
108	455029	84	0.024968237159
108	460497	85	0.024967770204
108	465965	86	0.024967303242
108	471433	87	0.024966836282
108	476901	88	0.024979369323
108	482369	89	0.024965902358
108	487837	90	0.024965435396
108	493305	91	0.024977968429
108	498773	92	0.024964501462
108	504241	93	0.024977034493
108	509709	94	0.024963567528
108	515177	95	0.024976100557
108	520645	96	0.02496263359
108	526113	97	0.024975166617
108	531581	98	0.024961699648
108	537049	99	0.024974232676
108	542517	100	0.024973765703
109	4790	2	0
109	10258	3	0
109	15726	4	0
109	21194	5	0
109	26662	6	0
109	32130	7	0
109	37598	8	0
109	43066	9	0
109	48535	10	0
109	55865	11	0
109	61333	12	0
109	66801	13	0
109	72269	14	0
109	77737	15	0
109	83205	16	0
109	88673	17	0
109	94141	18	0
109	99609	19	0
109	105077	20	0
109	110545	21	0
109	116013	22	0
109	121481	23	0
109	126949	24	0
109	132417	25	0
109	137885	26	0
109	143353	27	0
109	148821	28	0
109	154289	29	0
109	159757	30	0
109	165225	31	0
109	170693	32	0
109	176161	33	0
109	181629	34	0
109	187097	35	0
109	192565	36	0
109	198033	37	0
109	203501	38	0
109	208969	39	0
109	214437	40	0
109	219905	41	0
109	225373	42	0
109	230841	43	0
109	236309	44	0
109	241777	45	0
109	247245	46	0
109	252713	47	0
109	258181	48	0
109	263649	49	0
109	269117	50	0
109	274585	51	0
109	280053	52	0
109	285521	53	0
109	290989	54	0
109	296457	55	0
109	301925	56	0
109	307393	57	0
109	312861	58	0
109	318329	59	0
109	323797	60	0
109	329265	61	0
109	334733	62	0
109	340201	63	0
109	345669	64	0
109	351137	65	0
109	356605	66	0
109	362073	67	0
109	367541	68	0
109	373009	69	0
109	378477	70	0
109	383945	71	0
109	389413	72	0
109	394881	73	0
109	400349	74	0
109	405817	75	0
109	411285	76	0
109	416753	77	0
109	422221	78	0
109	427689	79	0
109	433157	80	0
109	438625	81	0
109	444093	82	0
109	449561	83	0
109	455029	84	0
109	460497	85	0
109	465965	86	0
109	471433	87	0
109	476901	88	0
109	482369	89	0
109	487837	90	0
109	493305	91	0
109	498773	92	0
109	504241	93	0
109	509709	94	0
109	515177	95	0
109	520645	96	0
109	526113	97	0
109	531581	98	0
109	537049	99	0
109	542517	100	0
110	4791	2	6
110	10259	3	6
110	15727	4	6
110	21195	5	6
110	26663	6	6
110	32131	7	6
110	37599	8	6
110	43067	9	6
110	48536	10	6
110	55866	11	6
110	61334	12	6
110	66802	13	6
110	72270	14	6
110	77738	15	6
110	83206	16	6
110	88674	17	6
110	94142	18	6
110	99610	19	6
110	105078	20	6
110	110546	21	6
110	116014	22	6
110	121482	23	6
110	126950	24	6
110	132418	25	6
110	137886	26	6
110	143354	27	6
110	148822	28	6
110	154290	29	6
110	159758	30	6
110	165226	31	6
110	170694	32	6
110	176162	33	6
110	181630	34	6
110	187098	35	6
110	192566	36	6
110	198034	37	6
110	203502	38	6
110	208970	39	6
110	214438	40	6
110	219906	41	6
110	225374	42	6
110	230842	43	6
110	236310	44	6
110	241778	45	6
110	247246	46	6
110	252714	47	6
110	258182	48	6
110	263650	49	6
110	269118	50	6
110	274586	51	6
110	280054	52	6
110	285522	53	6
110	290990	54	6
110	296458	55	6
110	301926	56	6
110	307394	57	6
110	312862	58	6
110	318330	59	6
110	323798	60	6
110	329266	61	6
110	334734	62	6
110	340202	63	6
110	345670	64	6
110	351138	65	6
110	356606	66	6
110	362074	67	6
110	367542	68	6
110	373010	69	6
110	378478	70	6
110	383946	71	6
110	389414	72	6
110	394882	73	6
110	400350	74	6
110	405818	75	6
110	411286	76	6
110	416754	77	6
110	422222	78	6
110	427690	79	6
110	433158	80	6
110	438626	81	6
110	444094	82	6
110	449562	83	6
110	455030	84	6
110	460498	85	6
110	465966	86	6
110	471434	87	6
110	476902	88	6
110	482370	89	6
110	487838	90	6
110	493306	91	6
110	498774	92	6
110	504242	93	6
110	509710	94	6
110	515178	95	6
110	520646	96	6
110	526114	97	6
110	531582	98	6
110	537050	99	6
110	542518	100	6
111	4791	2	0.021463516914
111	10259	3	0.024964796484
111	15727	4	0.024977796554
111	21195	5	0.024964796594
111	26663	6	0.024977796621
111	32131	7	0.024964796651
111	37599	8	0.02496479666
111	43067	9	0.024977796669
111	48536	10	0.024964796677
111	55866	11	0.026841732233
111	61334	12	0.024977660523
111	66802	13	0.02496439614
111	72270	14	0.024976755072
111	77738	15	0.024962808489
111	83206	16	0.024974712426
111	88674	17	0.024973763042
111	94142	18	0.024960097518
111	99610	19	0.024972678761
111	105078	20	0.024972438306
111	110546	21	0.024972313442
111	116014	22	0.024972266205
111	121482	23	0.024959386238
111	126950	24	0.024972609961
111	132418	25	0.024972879615
111	137886	26	0.024973147398
111	143354	27	0.024960413903
111	148822	28	0.024973670663
111	154290	29	0.024973904207
111	159758	30	0.024974096869
111	165226	31	0.024961251818
111	170694	32	0.024974384638
111	176162	33	0.024974408571
111	181630	34	0.024961416128
111	187098	35	0.024974409061
111	192566	36	0.024974340181
111	198034	37	0.024961213274
111	203502	38	0.024974110154
111	208970	39	0.024973968945
111	214438	40	0.024960719899
111	219906	41	0.024973444792
111	225374	42	0.02497312869
111	230842	43	0.024972774857
111	236310	44	0.024959471943
111	241778	45	0.024972127833
111	247246	46	0.02497175001
111	252714	47	0.024971368866
111	258182	48	0.024970985263
111	263650	49	0.024970599749
111	269118	50	0.024970212663
111	274586	51	0.024969824211
111	280054	52	0.024969434553
111	285522	53	0.024969043845
111	290990	54	0.024968652187
111	296458	55	0.024968259705
111	301926	56	0.024967866471
111	307394	57	0.024980472572
111	312862	58	0.024967078066
111	318330	59	0.02496668302
111	323798	60	0.024966287495
111	329266	61	0.024978890654
111	334734	62	0.024965479208
111	340202	63	0.024965044165
111	345670	64	0.024977579204
111	351138	65	0.024964109138
111	356606	66	0.024976641042
111	362074	67	0.024963174142
111	367542	68	0.024975707463
111	373010	69	0.024962240691
111	378478	70	0.024974773833
111	383946	71	0.024974306965
111	389414	72	0.024960840077
111	394882	73	0.024973373189
111	400350	74	0.024972906295
111	405818	75	0.024972439389
111	411286	76	0.024971972485
111	416754	77	0.024971505566
111	422222	78	0.024958038651
111	427690	79	0.024970571723
111	433158	80	0.024970104794
111	438626	81	0.024969637863
111	444094	82	0.024969170921
111	449562	83	0.024981703982
111	455030	84	0.024968237039
111	460498	85	0.024967770095
111	465966	86	0.024967303143
111	471434	87	0.024966836193
111	476902	88	0.024979369242
111	482370	89	0.024965902285
111	487838	90	0.02496543533
111	493306	91	0.024977968369
111	498774	92	0.024964501407
111	504242	93	0.024977034444
111	509710	94	0.024963567484
111	515178	95	0.024976100516
111	520646	96	0.024962633554
111	526114	97	0.024975166584
111	531582	98	0.024961699618
111	537050	99	0.024974232649
111	542518	100	0.024973765678
112	4791	2	0
112	10259	3	0
112	15727	4	0
112	21195	5	0
112	26663	6	0
112	32131	7	0
112	37599	8	0
112	43067	9	0
112	48536	10	0
112	55866	11	0
112	61334	12	0
112	66802	13	0
112	72270	14	0
112	77738	15	0
112	83206	16	0
112	88674	17	0
112	94142	18	0
112	99610	19	0
112	105078	20	0
112	110546	21	0
112	116014	22	0
112	121482	23	0
112	126950	24	0
112	132418	25	0
112	137886	26	0
112	143354	27	0
112	148822	28	0
112	154290	29	0
112	159758	30	0
112	165226	31	0
112	170694	32	0
112	176162	33	0
112	181630	34	0
112	187098	35	0
112	192566	36	0
112	198034	37	0
112	203502	38	0
112	208970	39	0
112	214438	40	0
112	219906	41	0
112	225374	42	0
112	230842	43	0
112	236310	44	0
112	241778	45	0
112	247246	46	0
112	252714	47	0
112	258182	48	0
112	263650	49	0
112	269118	50	0
112	274586	51	0
112	280054	52	0
112	285522	53	0
112	290990	54	0
112	296458	55	0
112	301926	56	0
112	307394	57	0
112	312862	58	0
112	318330	59	0
112	323798	60	0
112	329266	61	0
112	334734	62	0
112	340202	63	0
112	345670	64	0
112	351138	65	0
112	356606	66	0
112	362074	67	0
112	367542	68	0
112	373010	69	0
112	378478	70	0
112	383946	71	0
112	389414	72	0
112	394882	73	0
112	400350	74	0
112	405818	75	0
112	411286	76	0
112	416754	77	0
112	422222	78	0
112	427690	79	0
112	433158	80	0
112	438626	81	0
112	444094	82	0
112	449562	83	0
112	455030	84	0
112	460498	85	0
112	465966	86	0
112	471434	87	0
112	476902	88	0
112	482370	89	0
112	487838	90	0
112	493306	91	0
112	498774	92	0
112	504242	93	0
112	509710	94	0
112	515178	95	0
112	520646	96	0
112	526114	97	0
112	531582	98	0
112	537050	99	0
112	542518	100	0
113	4792	2	7
113	10260	3	7
113	15728	4	7
113	21196	5	7
113	26664	6	7
113	32132	7	7
113	37600	8	7
113	43068	9	7
113	48537	10	7
113	55867	11	7
113	61335	12	7
113	66803	13	7
113	72271	14	7
113	77739	15	7
113	83207	16	7
113	88675	17	7
113	94143	18	7
113	99611	19	7
113	105079	20	7
113	110547	21	7
113	116015	22	7
113	121483	23	7
113	126951	24	7
113	132419	25	7
113	137887	26	7
113	143355	27	7
113	148823	28	7
113	154291	29	7
113	159759	30	7
113	165227	31	7
113	170695	32	7
113	176163	33	7
113	181631	34	7
113	187099	35	7
113	192567	36	7
113	198035	37	7
113	203503	38	7
113	208971	39	7
113	214439	40	7
113	219907	41	7
113	225375	42	7
113	230843	43	7
113	236311	44	7
113	241779	45	7
113	247247	46	7
113	252715	47	7
113	258183	48	7
113	263651	49	7
113	269119	50	7
113	274587	51	7
113	280055	52	7
113	285523	53	7
113	290991	54	7
113	296459	55	7
113	301927	56	7
113	307395	57	7
113	312863	58	7
113	318331	59	7
113	323799	60	7
113	329267	61	7
113	334735	62	7
113	340203	63	7
113	345671	64	7
113	351139	65	7
113	356607	66	7
113	362075	67	7
113	367543	68	7
113	373011	69	7
113	378479	70	7
113	383947	71	7
113	389415	72	7
113	394883	73	7
113	400351	74	7
113	405819	75	7
113	411287	76	7
113	416755	77	7
113	422223	78	7
113	427691	79	7
113	433159	80	7
113	438627	81	7
113	444095	82	7
113	449563	83	7
113	455031	84	7
113	460499	85	7
113	465967	86	7
113	471435	87	7
113	476903	88	7
113	482371	89	7
113	487839	90	7
113	493307	91	7
113	498775	92	7
113	504243	93	7
113	509711	94	7
113	515179	95	7
113	520647	96	7
113	526115	97	7
113	531583	98	7
113	537051	99	7
113	542519	100	7
114	4792	2	0.0214634969
114	10260	3	0.024964796484
114	15728	4	0.024977796554
114	21196	5	0.024964796594
114	26664	6	0.024977796621
114	32132	7	0.024964796651
114	37600	8	0.02496479666
114	43068	9	0.02497779667
114	48537	10	0.024964796677
114	55867	11	0.026842812017
114	61335	12	0.024977669562
114	66803	13	0.02496439956
114	72271	14	0.024976736804
114	77739	15	0.024962791758
114	83207	16	0.024974694352
114	88675	17	0.024973749701
114	94143	18	0.024960088663
114	99611	19	0.024972672424
114	105079	20	0.02497243294
114	110547	21	0.024972308526
114	116015	22	0.024972261678
114	121483	23	0.024959382113
114	126951	24	0.024972605451
114	132419	25	0.024972876193
114	137887	26	0.024973144091
114	143355	27	0.024960410601
114	148823	28	0.024973667346
114	154291	29	0.024973900884
114	159759	30	0.024974093545
114	165227	31	0.024961249974
114	170695	32	0.024974379835
114	176163	33	0.024974404751
114	181631	34	0.024961412807
114	187099	35	0.024974405742
114	192567	36	0.024974336861
114	198035	37	0.024961209954
114	203503	38	0.02497410869
114	208971	39	0.024973963764
114	214439	40	0.024960716574
114	219907	41	0.024973441469
114	225375	42	0.024973125365
114	230843	43	0.024972771533
114	236311	44	0.024959469836
114	241779	45	0.024972124498
114	247247	46	0.024971746674
114	252715	47	0.02497136553
114	258183	48	0.024970981927
114	263651	49	0.024970596414
114	269119	50	0.024970209328
114	274587	51	0.024969820874
114	280055	52	0.024969431217
114	285523	53	0.02496904051
114	290991	54	0.024968648851
114	296459	55	0.02496825637
114	301927	56	0.024967863135
114	307395	57	0.024980469236
114	312863	58	0.024967074731
114	318331	59	0.024966679684
114	323799	60	0.024966284159
114	329267	61	0.024978887156
114	334735	62	0.024965475873
114	340203	63	0.024965040384
114	345671	64	0.02497757587
114	351139	65	0.024964105803
114	356607	66	0.024976637709
114	362075	67	0.024963170808
114	367543	68	0.024975704129
114	373011	69	0.024962237356
114	378479	70	0.024974770499
114	383947	71	0.024974303631
114	389415	72	0.024960836743
114	394883	73	0.024973369854
114	400351	74	0.024972902961
114	405819	75	0.024972436055
114	411287	76	0.02497196915
114	416755	77	0.024971502232
114	422223	78	0.024958035316
114	427691	79	0.024970568389
114	433159	80	0.024970101459
114	438627	81	0.024969634529
114	444095	82	0.024969167586
114	449563	83	0.024981700647
114	455031	84	0.024968233704
114	460499	85	0.024967766761
114	465967	86	0.024967299809
114	471435	87	0.024966832858
114	476903	88	0.024979365907
114	482371	89	0.02496589895
114	487839	90	0.024965431995
114	493307	91	0.024977965035
114	498775	92	0.024964498073
114	504243	93	0.024977031109
114	509711	94	0.024963564148
114	515179	95	0.024976097182
114	520647	96	0.024962630219
114	526115	97	0.024975163249
114	531583	98	0.024961696283
114	537051	99	0.024974229314
114	542519	100	0.024973762344
115	4792	2	0
115	10260	3	0
115	15728	4	0
115	21196	5	0
115	26664	6	0
115	32132	7	0
115	37600	8	0
115	43068	9	0
115	48537	10	0
115	55867	11	0
115	61335	12	0
115	66803	13	0
115	72271	14	0
115	77739	15	0
115	83207	16	0
115	88675	17	0
115	94143	18	0
115	99611	19	0
115	105079	20	0
115	110547	21	0
115	116015	22	0
115	121483	23	0
115	126951	24	0
115	132419	25	0
115	137887	26	0
115	143355	27	0
115	148823	28	0
115	154291	29	0
115	159759	30	0
115	165227	31	0
115	170695	32	0
115	176163	33	0
115	181631	34	0
115	187099	35	0
115	192567	36	0
115	198035	37	0
115	203503	38	0
115	208971	39	0
115	214439	40	0
115	219907	41	0
115	225375	42	0
115	230843	43	0
115	236311	44	0
115	241779	45	0
115	247247	46	0
115	252715	47	0
115	258183	48	0
115	263651	49	0
115	269119	50	0
115	274587	51	0
115	280055	52	0
115	285523	53	0
115	290991	54	0
115	296459	55	0
115	301927	56	0
115	307395	57	0
115	312863	58	0
115	318331	59	0
115	323799	60	0
115	329267	61	0
115	334735	62	0
115	340203	63	0
115	345671	64	0
115	351139	65	0
115	356607	66	0
115	362075	67	0
115	367543	68	0
115	373011	69	0
115	378479	70	0
115	383947	71	0
115	389415	72	0
115	394883	73	0
115	400351	74	0
115	405819	75	0
115	411287	76	0
115	416755	77	0
115	422223	78	0
115	427691	79	0
115	433159	80	0
115	438627	81	0
115	444095	82	0
115	449563	83	0
115	455031	84	0
115	460499	85	0
115	465967	86	0
115	471435	87	0
115	476903	88	0
115	482371	89	0
115	487839	90	0
115	493307	91	0
115	498775	92	0
115	504243	93	0
115	509711	94	0
115	515179	95	0
115	520647	96	0
115	526115	97	0
115	531583	98	0
115	537051	99	0
115	542519	100	0

