file 2448658 1720454209                                         
version 3
run BreakRanksNoGui-23-20240708-17:56:35-156328
attr configname BreakRanksNoGui
attr datetime 20240708-17:56:35
attr datetimef 20240708-175635
attr experiment BreakRanksNoGui
attr inifile omnetpp.ini
attr iterationvars "$nCars=8, $platoonSize=8, $nLanes=1, $ploegH=0.5, $controller=1, $headway=0.1, $leaderHeadway=1.2, $leaderSpeed=110, $breakRanksSafetyDistance=3, $minSpeed=100, $maxSpeed=120, $beaconInterval=0.1, $priority=4, $packetSize=200, $sController=\"CACC\", $0=2, $1=0"
attr iterationvarsd nCars=8/platoonSize=8/nLanes=1/ploegH=0.5/controller=1/headway=0.1/leaderHeadway=1.2/leaderSpeed=110/breakRanksSafetyDistance=3/minSpeed=100/maxSpeed=120/beaconInterval=0.1/priority=4/packetSize=200/sController=CACC/2/0
attr iterationvarsf nCars=8,platoonSize=8,nLanes=1,ploegH=0.5,controller=1,headway=0.1,leaderHeadway=1.2,leaderSpeed=110,breakRanksSafetyDistance=3,minSpeed=100,maxSpeed=120,beaconInterval=0.1,priority=4,packetSize=200,sController=CACC,2,0-
attr measurement "$nCars=8, $platoonSize=8, $nLanes=1, $ploegH=0.5, $controller=1, $headway=0.1, $leaderHeadway=1.2, $leaderSpeed=110, $breakRanksSafetyDistance=3, $minSpeed=100, $maxSpeed=120, $beaconInterval=0.1, $priority=4, $packetSize=200, $sController=\"CACC\", $0=2, $1=0"
attr network Highway
attr processid 156328
attr repetition 3
attr replication #3
attr resultdir results
attr runnumber 23
attr seedset 3
itervar beaconInterval 0.1
itervar breakRanksSafetyDistance 3
itervar controller 1
itervar headway 0.1
itervar leaderHeadway 1.2
itervar leaderSpeed 110
itervar maxSpeed 120
itervar minSpeed 100
itervar nCars 8
itervar nLanes 1
itervar packetSize 200
itervar platoonSize 8
itervar ploegH 0.5
itervar priority 4
itervar sController "\"CACC\""
config image-path ../../../veins/images
config repeat 10
config extends BreakRanks
config *.manager.command "\"sumo\""
config *.manager.ignoreGuiCommands true
config output-vector-file results/BreakRanks_1_0.1_110_3/result_3.vec
config output-scalar-file results/BreakRanks_1_0.1_110_3/result_3.sca
config extends Platooning
config *.node[*].scenario_type "\"BreakRanksScenario\""
config *.manager.command "\"sumo-gui\""
config *.node[*].scenario_type "\"SimpleScenario\""
config cmdenv-express-mode true
config cmdenv-autoflush true
config cmdenv-status-frequency 15s
config num-rngs 6
config network Highway
config debug-on-errors true
config print-undisposed true
config *.playgroundSizeX 65000m
config *.playgroundSizeY 25000m
config *.playgroundSizeZ 50m
config sim-time-limit "100 s"
config *.annotations.draw false
config *.obstacles.debug false
config *.world.useTorus false
config *.world.use2D false
config *.manager.updateInterval 0.01s
config *.manager.host "\"localhost\""
config *.manager.moduleType "\"org.car2x.plexe.PlatoonCar\""
config *.manager.moduleName "\"node\""
config *.manager.moduleDisplayString "\"\""
config *.manager.autoShutdown true
config *.manager.margin 25
config *.connectionManager.sendDirect true
config *.connectionManager.maxInterfDist 2600m
config *.connectionManager.drawMaxIntfDist false
config *.**.nic.mac1609_4.useServiceChannel false
config *.**.nic.mac1609_4.txPower 100mW
config *.**.nic.mac1609_4.bitrate 6Mbps
config *.**.nic.mac1609_4.useAcks true
config *.**.nic.mac1609_4.ackErrorRate 0.0
config *.**.nic.mac1609_4.frameErrorRate 0.0
config *.**.nic.phy80211p.minPowerLevel -94dBm
config *.**.nic.phy80211p.maxTXPower 100mW
config *.**.nic.phy80211p.useNoiseFloor true
config *.**.nic.phy80211p.noiseFloor -95dBm
config *.**.nic.phy80211p.decider "xmldoc(\"config.xml\")"
config *.**.nic.phy80211p.analogueModels "xmldoc(\"config.xml\")"
config *.**.nic.phy80211p.usePropagationDelay true
config *.node[*].mobility.x 0
config *.node[*].mobility.y 0
config *.node[*].mobility.z 1.895
config seed-set 3
config **.seed 3
config *.node[*].prot.rng-0 2
config *.node[*].appl.rng-0 3
config *.node[*].scenario.rng-0 4
config **.traffic.rng-0 5
config *.manager.configFile "\"./sumocfg/freeway.sumo.cfg\""
config *.manager.launchConfig "xmldoc(\"./sumocfg/freeway.launchd.xml\")"
config **.numberOfCars 8
config **.numberOfCarsPerPlatoon 8
config **.numberOfLanes 1
config *.node[*].helper_type "\"PositionHelper\""
config *.node[*].scenario.caccC1 0.5
config *.node[*].scenario.caccXi 1
config *.node[*].scenario.caccOmegaN "0.2 Hz"
config *.node[*].scenario.caccSpacing "2 m"
config *.node[*].scenario.engineTau "0.5 s"
config *.node[*].scenario.ploegH 0.5s
config *.node[*].scenario.ploegKp 0.2
config *.node[*].scenario.ploegKd 0.7
config *.node[*].scenario.useRealisticEngine false
config *.node[*].scenario.useControllerAcceleration true
config *.node[*].scenario.nLanes 1
config **.numericController 1
config **.headway 0.1s
config *.node[*].scenario.accHeadway 0.1s
config *.node[*].scenario.leaderHeadway 1.2s
config *.node[*].scenario.leaderSpeed 110kmph
config *.node[*].appl_type "\"SimplePlatooningApp\""
config *.node[*].appl.*.scalar-recording true
config *.node[*].appl.*.vector-recording true
config *.node[0].appl.breakRanksSafetyDistance 3m
config *.node[*].appl.minSpeed 100kmph
config *.node[*].appl.maxSpeed 120kmph
config *.node[*].protocol_type "\"SimplePlatooningBeaconing\""
config *.node[*].prot.*.scalar-recording true
config *.node[*].prot.*.vector-recording true
config *.node[*].prot.beaconingInterval 0.1s
config *.node[*].prot.priority 4
config *.node[*].prot.packetSize 200
config **.traffic_type "\"PlatoonsTrafficManager\""
config **.traffic.platoonInsertTime "1 s"
config **.traffic.platoonInsertSpeed 110kmph
config **.traffic.nCars 8
config **.traffic.platoonSize 8
config **.traffic.nLanes 1
config **.traffic.platooningVType "\"vtypeauto\""
config **.traffic.controller "\"CACC\""
config **.traffic.platoonInsertDistance 2m
config **.traffic.platoonInsertHeadway 0s
config **.traffic.platoonLeaderHeadway 1.2s
config **.scalar-recording false
config **.vector-recording false
config output-vector-file results/BreakRanksNoGui_1_0.1_110_3/result_3.vec
config output-scalar-file results/BreakRanksNoGui_1_0.1_110_3/result_3.sca

vector 0 Highway.node[0].appl distance ETV
vector 1 Highway.node[0].appl relativeSpeed ETV
vector 2 Highway.node[0].appl nodeId ETV
vector 3 Highway.node[0].appl acceleration ETV
vector 4 Highway.node[0].appl controllerAcceleration ETV
vector 5 Highway.node[0].appl speed ETV
vector 6 Highway.node[0].appl posx ETV
vector 7 Highway.node[0].appl posy ETV
vector 8 Highway.node[1].appl distance ETV
vector 9 Highway.node[1].appl relativeSpeed ETV
vector 10 Highway.node[1].appl nodeId ETV
vector 11 Highway.node[1].appl acceleration ETV
vector 12 Highway.node[1].appl controllerAcceleration ETV
vector 13 Highway.node[1].appl speed ETV
vector 14 Highway.node[1].appl posx ETV
vector 15 Highway.node[1].appl posy ETV
vector 16 Highway.node[2].appl distance ETV
vector 17 Highway.node[2].appl relativeSpeed ETV
vector 18 Highway.node[2].appl nodeId ETV
vector 19 Highway.node[2].appl acceleration ETV
vector 20 Highway.node[2].appl controllerAcceleration ETV
vector 21 Highway.node[2].appl speed ETV
vector 22 Highway.node[2].appl posx ETV
vector 23 Highway.node[2].appl posy ETV
vector 24 Highway.node[3].appl distance ETV
vector 25 Highway.node[3].appl relativeSpeed ETV
vector 26 Highway.node[3].appl nodeId ETV
vector 27 Highway.node[3].appl acceleration ETV
vector 28 Highway.node[3].appl controllerAcceleration ETV
vector 29 Highway.node[3].appl speed ETV
vector 30 Highway.node[3].appl posx ETV
vector 31 Highway.node[3].appl posy ETV
vector 32 Highway.node[4].appl distance ETV
vector 33 Highway.node[4].appl relativeSpeed ETV
vector 34 Highway.node[4].appl nodeId ETV
vector 35 Highway.node[4].appl acceleration ETV
vector 36 Highway.node[4].appl controllerAcceleration ETV
vector 37 Highway.node[4].appl speed ETV
vector 38 Highway.node[4].appl posx ETV
vector 39 Highway.node[4].appl posy ETV
vector 40 Highway.node[5].appl distance ETV
vector 41 Highway.node[5].appl relativeSpeed ETV
vector 42 Highway.node[5].appl nodeId ETV
vector 43 Highway.node[5].appl acceleration ETV
vector 44 Highway.node[5].appl controllerAcceleration ETV
vector 45 Highway.node[5].appl speed ETV
vector 46 Highway.node[5].appl posx ETV
vector 47 Highway.node[5].appl posy ETV
vector 48 Highway.node[6].appl distance ETV
vector 49 Highway.node[6].appl relativeSpeed ETV
vector 50 Highway.node[6].appl nodeId ETV
vector 51 Highway.node[6].appl acceleration ETV
vector 52 Highway.node[6].appl controllerAcceleration ETV
vector 53 Highway.node[6].appl speed ETV
vector 54 Highway.node[6].appl posx ETV
vector 55 Highway.node[6].appl posy ETV
vector 56 Highway.node[7].appl distance ETV
vector 57 Highway.node[7].appl relativeSpeed ETV
vector 58 Highway.node[7].appl nodeId ETV
vector 59 Highway.node[7].appl acceleration ETV
vector 60 Highway.node[7].appl controllerAcceleration ETV
vector 61 Highway.node[7].appl speed ETV
vector 62 Highway.node[7].appl posx ETV
vector 63 Highway.node[7].appl posy ETV
vector 64 Highway.node[1].prot leaderDelay ETV
vector 65 Highway.node[1].prot leaderDelayId ETV
vector 66 Highway.node[1].prot frontDelay ETV
vector 67 Highway.node[1].prot frontDelayId ETV
vector 68 Highway.node[2].prot leaderDelay ETV
vector 69 Highway.node[2].prot leaderDelayId ETV
vector 70 Highway.node[3].prot leaderDelay ETV
vector 71 Highway.node[3].prot leaderDelayId ETV
vector 72 Highway.node[4].prot leaderDelay ETV
vector 73 Highway.node[4].prot leaderDelayId ETV
vector 74 Highway.node[5].prot leaderDelay ETV
vector 75 Highway.node[5].prot leaderDelayId ETV
vector 76 Highway.node[6].prot leaderDelay ETV
vector 77 Highway.node[6].prot leaderDelayId ETV
vector 78 Highway.node[7].prot leaderDelay ETV
vector 79 Highway.node[7].prot leaderDelayId ETV
vector 80 Highway.node[7].prot frontDelay ETV
vector 81 Highway.node[7].prot frontDelayId ETV
vector 82 Highway.node[2].prot frontDelay ETV
vector 83 Highway.node[2].prot frontDelayId ETV
vector 84 Highway.node[5].prot frontDelay ETV
vector 85 Highway.node[5].prot frontDelayId ETV
vector 86 Highway.node[3].prot frontDelay ETV
vector 87 Highway.node[3].prot frontDelayId ETV
vector 88 Highway.node[6].prot frontDelay ETV
vector 89 Highway.node[6].prot frontDelayId ETV
vector 90 Highway.node[4].prot frontDelay ETV
vector 91 Highway.node[4].prot frontDelayId ETV
vector 92 Highway.node[0].prot nodeId ETV
vector 93 Highway.node[0].prot busyTime ETV
vector 94 Highway.node[0].prot collisions ETV
vector 95 Highway.node[1].prot nodeId ETV
vector 96 Highway.node[1].prot busyTime ETV
vector 97 Highway.node[1].prot collisions ETV
vector 98 Highway.node[2].prot nodeId ETV
vector 99 Highway.node[2].prot busyTime ETV
vector 100 Highway.node[2].prot collisions ETV
vector 101 Highway.node[3].prot nodeId ETV
vector 102 Highway.node[3].prot busyTime ETV
vector 103 Highway.node[3].prot collisions ETV
vector 104 Highway.node[4].prot nodeId ETV
vector 105 Highway.node[4].prot busyTime ETV
vector 106 Highway.node[4].prot collisions ETV
vector 107 Highway.node[5].prot nodeId ETV
vector 108 Highway.node[5].prot busyTime ETV
vector 109 Highway.node[5].prot collisions ETV
vector 110 Highway.node[6].prot nodeId ETV
vector 111 Highway.node[6].prot busyTime ETV
vector 112 Highway.node[6].prot collisions ETV
vector 113 Highway.node[7].prot nodeId ETV
vector 114 Highway.node[7].prot busyTime ETV
vector 115 Highway.node[7].prot collisions ETV
0	11335 18559 113 543894 1.11 99.91 989 -1 56.5634 8064.2974 381380.1578495
1	29894 17596 113 543894 1.11 99.91 989 0 1.4444 310.546 448.5526424
2	47490 16521 113 543894 1.11 99.91 989 0 0 0 0
3	64011 19109 113 543894 1.11 99.91 989 -0.00283113 0.000125957 -0.043966303784312 9.6812896349407e-05
4	83120 26489 113 543894 1.11 99.91 989 -0.00437036 0.00019576 -0.042459310034081 0.00013890441444735
5	109609 22451 113 543894 1.11 99.91 989 30.5554 30.56 30219.5304 923377.16656332
6	132060 22290 113 543894 1.11 99.91 989 59.1004 3078 1551296.9489 3185931137.6231
7	154350 21466 113 543894 1.11 99.91 989 242.45 242.45 239783.05 58135400.472499
8	175816 20010 114 543895 1.11 99.91 989 -1 2.99713 865.63498 4093.5931360696
9	195826 21023 114 543895 1.11 99.91 989 -0.000441914 0.0796634 9.97154166087 0.52714693497335
10	216849 17510 114 543895 1.11 99.91 989 1 1 989 989
11	234359 25437 114 543895 1.11 99.91 989 -0.0414028 0.929846 14.415374512789 10.473332403497
12	259796 27290 114 543895 1.11 99.91 989 -0.0644031 1.43995 14.209094593687 15.437601582747
13	287086 21503 114 543895 1.11 99.91 989 30.4759 32.0644 30885.8867 965071.26152775
14	308589 23381 114 543895 1.11 99.91 989 53.1004 3138.56 1560398.4456 3247322009.2575
15	331970 22455 114 543895 1.11 99.91 989 242.45 245.75 240650.95 58559109.2525
16	354425 23316 115 543896 1.11 99.91 989 1.99962 129.483 34089.89616 2843078.511622
17	377741 24474 115 543896 1.11 99.91 989 -0.00010195 2.66245 1206.1324370637 3040.0860381771
18	402215 17510 115 543896 1.11 99.91 989 2 2 1978 3956
19	419725 25378 115 543896 1.11 99.91 989 -1.55245 0.0687672 -25.555196311383 31.259663698059
20	445103 27011 115 543896 1.11 99.91 989 -2.36876 0.10676 -24.454461171575 43.105010347681
21	472114 21539 115 543896 1.11 99.91 989 27.8932 30.56 29003.4262 852101.11029716
22	493653 23380 115 543896 1.11 99.91 989 47.1004 2944.52 1509865.2163 3000322508.5483
23	517033 22455 115 543896 1.11 99.91 989 242.45 242.45 239783.05 58135400.472499
24	539488 23338 116 543897 1.11 99.91 989 1.99951 59.5176 17781.08422 689384.43980027
25	562826 23418 116 543897 1.11 99.91 989 -0.000184629 2.72494 575.6756780442 775.79023357885
26	586244 17510 116 543897 1.11 99.91 989 3 3 2967 8901
27	603754 25899 116 543897 1.11 99.91 989 -2.33574 0.337853 -35.550765999951 99.776048790433
28	629653 26613 116 543897 1.11 99.91 989 -2.96568 0.376695 -34.243357158228 121.81325419661
29	656266 21974 116 543897 1.11 99.91 989 25.2028 30.56 28427.7513 820581.09522273
30	678240 22997 116 543897 1.11 99.91 989 41.1004 2881 1488127.1879 2905966237.0977
31	701237 22455 116 543897 1.11 99.91 989 242.45 242.45 239783.05 58135400.472499
32	723692 23297 117 543898 1.11 99.91 989 1.99959 34.0553 13747.04855 373383.74677663
33	746989 25238 117 543898 1.11 99.91 989 -8.90343e-05 2.67126 320.56964887993 466.02446934594
34	772227 17510 117 543898 1.11 99.91 989 4 4 3956 15824
35	789737 25860 117 543898 1.11 99.91 989 -2.58173 0.559007 -35.891634275532 170.44659510048
36	815597 25856 117 543898 1.11 99.91 989 -2.96855 0.596549 -34.567388030918 194.08628203579
37	841453 23338 117 543898 1.11 99.91 989 22.7863 30.56 28107.1798 804062.29017474
38	864791 23311 117 543898 1.11 99.91 989 35.1004 2842.94 1470423.4988 2833450635.9919
39	888102 22455 117 543898 1.11 99.91 989 242.45 242.45 239783.05 58135400.472499
40	910557 23256 118 543899 1.11 99.91 989 0.222576 252.593 57163.125556 9228589.3940746
41	933813 24187 118 543899 1.11 99.91 989 -4.6739e-05 10.1089 2549.2895948136 15035.217866108
42	958000 17510 118 543899 1.11 99.91 989 5 5 4945 24725
43	975510 25549 118 543899 1.11 99.91 989 -2.6357 1.49468 -35.550918672553 261.01884511038
44	1001059 26608 118 543899 1.11 99.91 989 -2.96806 1.5 -33.290879611422 307.71028370098
45	1027667 21819 118 543899 1.11 99.91 989 21.8841 30.56 28318.9911 815152.49961999
46	1049486 23359 118 543899 1.11 99.91 989 29.1004 2858.12 1470876.8574 2847130317.483
47	1072845 22455 118 543899 1.11 99.91 989 242.45 245.75 241235.05 58844266.8725
48	1095300 20969 119 543900 1.11 99.91 989 -1 2.9306 746.52381 3475.4109726327
49	1116269 21849 119 543900 1.11 99.91 989 -6.21555e-05 0.0384902 9.309587847436 0.26301439815465
50	1138118 17510 119 543900 1.11 99.91 989 6 6 5934 35604
51	1155628 25225 119 543900 1.11 99.91 989 -1.46086 0.0651793 -35.561892736744 41.950079801808
52	1180853 26705 119 543900 1.11 99.91 989 -1.5 0.101256 -34.752216623457 49.130679424957
53	1207558 21589 119 543900 1.11 99.91 989 26.8987 30.56 28517.0188 825138.5454161
54	1229147 23375 119 543900 1.11 99.91 989 23.1004 2871.92 1473313.425 2868102275.5344
55	1252522 22455 119 543900 1.11 99.91 989 242.45 249.05 242937.84999999 59685984.672502
56	1274977 22266 120 543901 1.11 99.91 989 -1 40.3245 11491.40981 422666.67440873
57	1297243 23977 120 543901 1.11 99.91 989 -0.00963522 0.921148 34.898484213111 14.790430912242
58	1321220 17510 120 543901 1.11 99.91 989 7 7 6923 48461
59	1338730 26456 120 543901 1.11 99.91 989 -0.132497 0.655355 24.453705321095 12.841161470468
60	1365186 26462 120 543901 1.11 99.91 989 -0.0777171 1.00212 24.949351404231 16.440443571701
61	1391648 22770 120 543901 1.11 99.91 989 30.2552 33.0448 31007.9205 973291.39396957
62	1414418 23361 120 543901 1.11 99.91 989 17.1004 3114.71 1521597.5411 3126919403.348
63	1437779 22455 120 543901 1.11 99.91 989 242.45 245.75 241360.45 58905487.1525
64	1460234 40020 701 543942 1.269543540376 99.969549162976 988 0.099987520329 0.100008881567 98.800006142962 9.8800012440722
65	1500254 27280 701 543942 1.269543540376 99.969549162976 988 1 1 988 988
66	1527534 40020 701 543942 1.269543540376 99.969549162976 988 0.099987520329 0.100008881567 98.800006142962 9.8800012440722
67	1567554 27280 701 543942 1.269543540376 99.969549162976 988 1 1 988 988
68	1594834 39993 707 543948 1.26954356039 99.969549406431 988 0.099987520329 0.100008881568 98.800006366403 9.8800012887604
69	1634827 27260 707 543948 1.26954356039 99.969549406431 988 2 2 1976 3952
70	1662087 39997 713 543954 1.269543580403 99.969549618503 988 0.099987520329 0.100008881569 98.800006558461 9.880001327172
71	1702084 27272 713 543954 1.269543580403 99.969549618503 988 3 3 2964 8892
72	1729356 39998 719 543972 1.269543600417 99.969549745448 988 0.099987520329 0.10000888157 98.800006665393 9.8800013485584
73	1769354 27259 719 543972 1.269543600417 99.969549745448 988 4 4 3952 15808
74	1796613 39968 725 543966 1.269543620431 99.969549694891 988 0.099987520329 0.100008881573 98.800006594822 9.8800013344442
75	1836581 27246 725 543966 1.269543620431 99.969549694891 988 5 5 4940 24700
76	1863827 40001 731 543960 1.269543640445 99.96954964912 988 0.099987520329 0.100008881577 98.800006529037 9.8800013212872
77	1903828 27255 731 543960 1.269543640445 99.96954964912 988 6 6 5928 35568
78	1931083 40018 737 543936 1.269543660459 99.969549084124 988 0.099987520329 0.10000888158 98.800005944027 9.8800012042852
79	1971101 27277 737 543936 1.269543660459 99.969549084124 988 7 7 6916 48412
80	1998378 40005 842 544101 1.292086700487 99.992093707197 988 0.09998752033 0.100008881589 98.800007527072 9.8800015208972
81	2038383 27264 842 544101 1.292086700487 99.992093707197 988 7 7 6916 48412
82	2065647 40020 908 544149 1.299178800556 99.999173435107 988 0.099987520329 0.100008783637 98.799995154913 9.8799990464302
83	2105667 27282 908 544149 1.299178800556 99.999173435107 988 2 2 1976 3952
84	2132949 39996 974 544203 1.299575860598 99.999583826053 988 0.099987520328 0.100008783648 98.800008485817 9.8800017122753
85	2172945 27263 974 544203 1.299575860598 99.999583826053 988 5 5 4940 24700
86	2200208 39978 1041 543724 1.300193900626 99.900198149934 987 0.099987520329 0.100008833091 98.70000476967 9.8700009692867
87	2240186 27263 1041 543724 1.300193900626 99.900198149934 987 3 3 2961 8883
88	2267449 39957 1110 543793 1.305595960668 99.905600273789 987 0.099987520329 0.100008881565 98.700004833483 9.8700009822661
89	2307406 27240 1110 543793 1.305595960668 99.905600273789 987 6 6 5922 35532
90	2334646 39969 1173 543868 1.306045000696 99.905984430486 987 0.099896601537 0.100093792859 98.699939950152 9.8699896994417
91	2374615 27229 1173 543868 1.306045000696 99.905984430486 987 4 4 3948 15792
92	2401844 1459 4848 544261 2 100 99 0 0 0 0
93	2403303 2737 4848 544261 2 100 99 0.021651436855 0.026136809077 2.470792744004 0.061677302236817
94	2406040 1459 4848 544261 2 100 99 0 0 0 0
95	2407499 1459 4849 544262 2 100 99 1 1 99 99
96	2408958 2733 4849 544262 2 100 99 0.021651456868 0.025904502749 2.470400284218 0.061657174143629
97	2411691 1459 4849 544262 2 100 99 0 0 0 0
98	2413150 1459 4850 544263 2 100 99 2 2 198 396
99	2414609 2738 4850 544263 2 100 99 0.021651476882 0.025904506917 2.470400979037 0.061657208725273
100	2417347 1558 4850 544263 2 100 99 0 0 0 0
101	2418905 1558 4851 544264 2 100 99 3 3 297 891
102	2420463 2841 4851 544264 2 100 99 0.021650456868 0.025904506557 2.470399813341 0.061657157286696
103	2423304 1558 4851 544264 2 100 99 0 0 0 0
104	2424862 1558 4852 544265 2 100 99 4 4 396 1584
105	2426420 2830 4852 544265 2 100 99 0.021651436855 0.025904506528 2.470400732916 0.061657196712304
106	2429250 1558 4852 544265 2 100 99 0 0 0 0
107	2430808 1558 4853 544266 2 100 99 5 5 495 2475
108	2432366 2837 4853 544266 2 100 99 0.021650416841 0.025904506511 2.470399829907 0.06165715839522
109	2435203 1558 4853 544266 2 100 99 0 0 0 0
110	2436761 1558 4854 544267 2 100 99 6 6 594 3564
111	2438319 2831 4854 544267 2 100 99 0.021651396827 0.025904504657 2.470400921734 0.061657206421301
112	2441150 1558 4854 544267 2 100 99 0 0 0 0
113	2442708 1558 4855 544268 2 100 99 7 7 693 4851
114	2444266 2833 4855 544268 2 100 99 0.021651376813 0.02593783251 2.47040064242 0.061657247530776
115	2447099 1558 4855 544268 2 100 99 0 0 0 0

