file 2447998 1720454647                                         
version 3
run BreakRanksNoGui-27-20240708-18:03:54-157228
attr configname BreakRanksNoGui
attr datetime 20240708-18:03:54
attr datetimef 20240708-180354
attr experiment BreakRanksNoGui
attr inifile omnetpp.ini
attr iterationvars "$nCars=8, $platoonSize=8, $nLanes=1, $ploegH=0.5, $controller=1, $headway=0.1, $leaderHeadway=1.2, $leaderSpeed=130, $breakRanksSafetyDistance=3, $minSpeed=120, $maxSpeed=140, $beaconInterval=0.1, $priority=4, $packetSize=200, $sController=\"CACC\", $0=2, $1=0"
attr iterationvarsd nCars=8/platoonSize=8/nLanes=1/ploegH=0.5/controller=1/headway=0.1/leaderHeadway=1.2/leaderSpeed=130/breakRanksSafetyDistance=3/minSpeed=120/maxSpeed=140/beaconInterval=0.1/priority=4/packetSize=200/sController=CACC/2/0
attr iterationvarsf nCars=8,platoonSize=8,nLanes=1,ploegH=0.5,controller=1,headway=0.1,leaderHeadway=1.2,leaderSpeed=130,breakRanksSafetyDistance=3,minSpeed=120,maxSpeed=140,beaconInterval=0.1,priority=4,packetSize=200,sController=CACC,2,0-
attr measurement "$nCars=8, $platoonSize=8, $nLanes=1, $ploegH=0.5, $controller=1, $headway=0.1, $leaderHeadway=1.2, $leaderSpeed=130, $breakRanksSafetyDistance=3, $minSpeed=120, $maxSpeed=140, $beaconInterval=0.1, $priority=4, $packetSize=200, $sController=\"CACC\", $0=2, $1=0"
attr network Highway
attr processid 157228
attr repetition 7
attr replication #7
attr resultdir results
attr runnumber 27
attr seedset 7
itervar beaconInterval 0.1
itervar breakRanksSafetyDistance 3
itervar controller 1
itervar headway 0.1
itervar leaderHeadway 1.2
itervar leaderSpeed 130
itervar maxSpeed 140
itervar minSpeed 120
itervar nCars 8
itervar nLanes 1
itervar packetSize 200
itervar platoonSize 8
itervar ploegH 0.5
itervar priority 4
itervar sController "\"CACC\""
config image-path ../../../veins/images
config repeat 10
config extends BreakRanks
config *.manager.command "\"sumo\""
config *.manager.ignoreGuiCommands true
config output-vector-file results/BreakRanks_1_0.1_130_3/result_7.vec
config output-scalar-file results/BreakRanks_1_0.1_130_3/result_7.sca
config extends Platooning
config *.node[*].scenario_type "\"BreakRanksScenario\""
config *.manager.command "\"sumo-gui\""
config *.node[*].scenario_type "\"SimpleScenario\""
config cmdenv-express-mode true
config cmdenv-autoflush true
config cmdenv-status-frequency 15s
config num-rngs 6
config network Highway
config debug-on-errors true
config print-undisposed true
config *.playgroundSizeX 65000m
config *.playgroundSizeY 25000m
config *.playgroundSizeZ 50m
config sim-time-limit "100 s"
config *.annotations.draw false
config *.obstacles.debug false
config *.world.useTorus false
config *.world.use2D false
config *.manager.updateInterval 0.01s
config *.manager.host "\"localhost\""
config *.manager.moduleType "\"org.car2x.plexe.PlatoonCar\""
config *.manager.moduleName "\"node\""
config *.manager.moduleDisplayString "\"\""
config *.manager.autoShutdown true
config *.manager.margin 25
config *.connectionManager.sendDirect true
config *.connectionManager.maxInterfDist 2600m
config *.connectionManager.drawMaxIntfDist false
config *.**.nic.mac1609_4.useServiceChannel false
config *.**.nic.mac1609_4.txPower 100mW
config *.**.nic.mac1609_4.bitrate 6Mbps
config *.**.nic.mac1609_4.useAcks true
config *.**.nic.mac1609_4.ackErrorRate 0.0
config *.**.nic.mac1609_4.frameErrorRate 0.0
config *.**.nic.phy80211p.minPowerLevel -94dBm
config *.**.nic.phy80211p.maxTXPower 100mW
config *.**.nic.phy80211p.useNoiseFloor true
config *.**.nic.phy80211p.noiseFloor -95dBm
config *.**.nic.phy80211p.decider "xmldoc(\"config.xml\")"
config *.**.nic.phy80211p.analogueModels "xmldoc(\"config.xml\")"
config *.**.nic.phy80211p.usePropagationDelay true
config *.node[*].mobility.x 0
config *.node[*].mobility.y 0
config *.node[*].mobility.z 1.895
config seed-set 7
config **.seed 7
config *.node[*].prot.rng-0 2
config *.node[*].appl.rng-0 3
config *.node[*].scenario.rng-0 4
config **.traffic.rng-0 5
config *.manager.configFile "\"./sumocfg/freeway.sumo.cfg\""
config *.manager.launchConfig "xmldoc(\"./sumocfg/freeway.launchd.xml\")"
config **.numberOfCars 8
config **.numberOfCarsPerPlatoon 8
config **.numberOfLanes 1
config *.node[*].helper_type "\"PositionHelper\""
config *.node[*].scenario.caccC1 0.5
config *.node[*].scenario.caccXi 1
config *.node[*].scenario.caccOmegaN "0.2 Hz"
config *.node[*].scenario.caccSpacing "2 m"
config *.node[*].scenario.engineTau "0.5 s"
config *.node[*].scenario.ploegH 0.5s
config *.node[*].scenario.ploegKp 0.2
config *.node[*].scenario.ploegKd 0.7
config *.node[*].scenario.useRealisticEngine false
config *.node[*].scenario.useControllerAcceleration true
config *.node[*].scenario.nLanes 1
config **.numericController 1
config **.headway 0.1s
config *.node[*].scenario.accHeadway 0.1s
config *.node[*].scenario.leaderHeadway 1.2s
config *.node[*].scenario.leaderSpeed 130kmph
config *.node[*].appl_type "\"SimplePlatooningApp\""
config *.node[*].appl.*.scalar-recording true
config *.node[*].appl.*.vector-recording true
config *.node[0].appl.breakRanksSafetyDistance 3m
config *.node[*].appl.minSpeed 120kmph
config *.node[*].appl.maxSpeed 140kmph
config *.node[*].protocol_type "\"SimplePlatooningBeaconing\""
config *.node[*].prot.*.scalar-recording true
config *.node[*].prot.*.vector-recording true
config *.node[*].prot.beaconingInterval 0.1s
config *.node[*].prot.priority 4
config *.node[*].prot.packetSize 200
config **.traffic_type "\"PlatoonsTrafficManager\""
config **.traffic.platoonInsertTime "1 s"
config **.traffic.platoonInsertSpeed 130kmph
config **.traffic.nCars 8
config **.traffic.platoonSize 8
config **.traffic.nLanes 1
config **.traffic.platooningVType "\"vtypeauto\""
config **.traffic.controller "\"CACC\""
config **.traffic.platoonInsertDistance 2m
config **.traffic.platoonInsertHeadway 0s
config **.traffic.platoonLeaderHeadway 1.2s
config **.scalar-recording false
config **.vector-recording false
config output-vector-file results/BreakRanksNoGui_1_0.1_130_3/result_7.vec
config output-scalar-file results/BreakRanksNoGui_1_0.1_130_3/result_7.sca

vector 0 Highway.node[0].appl distance ETV
vector 1 Highway.node[0].appl relativeSpeed ETV
vector 2 Highway.node[0].appl nodeId ETV
vector 3 Highway.node[0].appl acceleration ETV
vector 4 Highway.node[0].appl controllerAcceleration ETV
vector 5 Highway.node[0].appl speed ETV
vector 6 Highway.node[0].appl posx ETV
vector 7 Highway.node[0].appl posy ETV
vector 8 Highway.node[1].appl distance ETV
vector 9 Highway.node[1].appl relativeSpeed ETV
vector 10 Highway.node[1].appl nodeId ETV
vector 11 Highway.node[1].appl acceleration ETV
vector 12 Highway.node[1].appl controllerAcceleration ETV
vector 13 Highway.node[1].appl speed ETV
vector 14 Highway.node[1].appl posx ETV
vector 15 Highway.node[1].appl posy ETV
vector 16 Highway.node[2].appl distance ETV
vector 17 Highway.node[2].appl relativeSpeed ETV
vector 18 Highway.node[2].appl nodeId ETV
vector 19 Highway.node[2].appl acceleration ETV
vector 20 Highway.node[2].appl controllerAcceleration ETV
vector 21 Highway.node[2].appl speed ETV
vector 22 Highway.node[2].appl posx ETV
vector 23 Highway.node[2].appl posy ETV
vector 24 Highway.node[3].appl distance ETV
vector 25 Highway.node[3].appl relativeSpeed ETV
vector 26 Highway.node[3].appl nodeId ETV
vector 27 Highway.node[3].appl acceleration ETV
vector 28 Highway.node[3].appl controllerAcceleration ETV
vector 29 Highway.node[3].appl speed ETV
vector 30 Highway.node[3].appl posx ETV
vector 31 Highway.node[3].appl posy ETV
vector 32 Highway.node[4].appl distance ETV
vector 33 Highway.node[4].appl relativeSpeed ETV
vector 34 Highway.node[4].appl nodeId ETV
vector 35 Highway.node[4].appl acceleration ETV
vector 36 Highway.node[4].appl controllerAcceleration ETV
vector 37 Highway.node[4].appl speed ETV
vector 38 Highway.node[4].appl posx ETV
vector 39 Highway.node[4].appl posy ETV
vector 40 Highway.node[5].appl distance ETV
vector 41 Highway.node[5].appl relativeSpeed ETV
vector 42 Highway.node[5].appl nodeId ETV
vector 43 Highway.node[5].appl acceleration ETV
vector 44 Highway.node[5].appl controllerAcceleration ETV
vector 45 Highway.node[5].appl speed ETV
vector 46 Highway.node[5].appl posx ETV
vector 47 Highway.node[5].appl posy ETV
vector 48 Highway.node[6].appl distance ETV
vector 49 Highway.node[6].appl relativeSpeed ETV
vector 50 Highway.node[6].appl nodeId ETV
vector 51 Highway.node[6].appl acceleration ETV
vector 52 Highway.node[6].appl controllerAcceleration ETV
vector 53 Highway.node[6].appl speed ETV
vector 54 Highway.node[6].appl posx ETV
vector 55 Highway.node[6].appl posy ETV
vector 56 Highway.node[7].appl distance ETV
vector 57 Highway.node[7].appl relativeSpeed ETV
vector 58 Highway.node[7].appl nodeId ETV
vector 59 Highway.node[7].appl acceleration ETV
vector 60 Highway.node[7].appl controllerAcceleration ETV
vector 61 Highway.node[7].appl speed ETV
vector 62 Highway.node[7].appl posx ETV
vector 63 Highway.node[7].appl posy ETV
vector 64 Highway.node[4].prot frontDelay ETV
vector 65 Highway.node[4].prot frontDelayId ETV
vector 66 Highway.node[3].prot frontDelay ETV
vector 67 Highway.node[3].prot frontDelayId ETV
vector 68 Highway.node[7].prot frontDelay ETV
vector 69 Highway.node[7].prot frontDelayId ETV
vector 70 Highway.node[2].prot frontDelay ETV
vector 71 Highway.node[2].prot frontDelayId ETV
vector 72 Highway.node[6].prot frontDelay ETV
vector 73 Highway.node[6].prot frontDelayId ETV
vector 74 Highway.node[5].prot frontDelay ETV
vector 75 Highway.node[5].prot frontDelayId ETV
vector 76 Highway.node[1].prot leaderDelay ETV
vector 77 Highway.node[1].prot leaderDelayId ETV
vector 78 Highway.node[1].prot frontDelay ETV
vector 79 Highway.node[1].prot frontDelayId ETV
vector 80 Highway.node[2].prot leaderDelay ETV
vector 81 Highway.node[2].prot leaderDelayId ETV
vector 82 Highway.node[3].prot leaderDelay ETV
vector 83 Highway.node[3].prot leaderDelayId ETV
vector 84 Highway.node[4].prot leaderDelay ETV
vector 85 Highway.node[4].prot leaderDelayId ETV
vector 86 Highway.node[5].prot leaderDelay ETV
vector 87 Highway.node[5].prot leaderDelayId ETV
vector 88 Highway.node[6].prot leaderDelay ETV
vector 89 Highway.node[6].prot leaderDelayId ETV
vector 90 Highway.node[7].prot leaderDelay ETV
vector 91 Highway.node[7].prot leaderDelayId ETV
vector 92 Highway.node[0].prot nodeId ETV
vector 93 Highway.node[0].prot busyTime ETV
vector 94 Highway.node[0].prot collisions ETV
vector 95 Highway.node[1].prot nodeId ETV
vector 96 Highway.node[1].prot busyTime ETV
vector 97 Highway.node[1].prot collisions ETV
vector 98 Highway.node[2].prot nodeId ETV
vector 99 Highway.node[2].prot busyTime ETV
vector 100 Highway.node[2].prot collisions ETV
vector 101 Highway.node[3].prot nodeId ETV
vector 102 Highway.node[3].prot busyTime ETV
vector 103 Highway.node[3].prot collisions ETV
vector 104 Highway.node[4].prot nodeId ETV
vector 105 Highway.node[4].prot busyTime ETV
vector 106 Highway.node[4].prot collisions ETV
vector 107 Highway.node[5].prot nodeId ETV
vector 108 Highway.node[5].prot busyTime ETV
vector 109 Highway.node[5].prot collisions ETV
vector 110 Highway.node[6].prot nodeId ETV
vector 111 Highway.node[6].prot busyTime ETV
vector 112 Highway.node[6].prot collisions ETV
vector 113 Highway.node[7].prot nodeId ETV
vector 114 Highway.node[7].prot busyTime ETV
vector 115 Highway.node[7].prot collisions ETV
0	11335 17696 113 543894 1.11 99.91 989 -1 35.3617 259.9539 39703.75748759
1	29031 16711 113 543894 1.11 99.91 989 0 1.8889 71.7782 135.58184198
2	45742 16521 113 543894 1.11 99.91 989 0 0 0 0
3	62263 18809 113 543894 1.11 99.91 989 -3.14892e-05 0.000707784 0.010991577126781 6.0508064149601e-06
4	81072 26467 113 543894 1.11 99.91 989 -4.89399e-05 0.00109259 0.010614843047836 8.6815283230331e-06
5	107539 22448 113 543894 1.11 99.91 989 36.11 36.1111 35713.866699999 1289666.6073546
6	129987 22343 113 543894 1.11 99.91 989 51.5199 3619.3 1815217.7308 4382871342.8188
7	152330 21466 113 543894 1.11 99.91 989 242.45 242.45 239783.05 58135400.472499
8	173796 21174 114 543895 1.11 99.91 989 -1 68.8884 11096.38952 460109.42462654
9	194970 21524 114 543895 1.11 99.91 989 -2.36679e-05 3.01701 707.49263638075 2041.9501093509
10	216494 17510 114 543895 1.11 99.91 989 1 1 989 989
11	234004 26148 114 543895 1.11 99.91 989 -0.714431 0.0318711 -11.060237734704 6.1947402061149
12	260152 27105 114 543895 1.11 99.91 989 -1.09743 0.0495089 -10.340581365012 8.488550845183
13	287257 21488 114 543895 1.11 99.91 989 34.9505 36.1111 35183.0452 1251905.7015274
14	308745 23383 114 543895 1.11 99.91 989 45.5199 3560.27 1796278.0016 4283640247.2145
15	332128 22455 114 543895 1.11 99.91 989 242.45 245.75 241360.45 58905487.1525
16	354583 23314 115 543896 1.11 99.91 989 2 44.9906 19084.59146 708117.95007326
17	377897 25159 115 543896 1.11 99.91 989 0 3.02753 359.95078847866 584.34440661554
18	403056 17510 115 543896 1.11 99.91 989 2 2 1978 3956
19	420566 26040 115 543896 1.11 99.91 989 -1.91356 0.335008 -0.27411838114101 48.67918934846
20	446606 26052 115 543896 1.11 99.91 989 -2.91996 0.377847 1.0902636720048 67.534139141024
21	472658 23327 115 543896 1.11 99.91 989 33.0836 36.1111 35343.9457 1263535.885142
22	495985 23320 115 543896 1.11 99.91 989 39.5199 3570.31 1788789.428 4257733600.6179
23	519305 22455 115 543896 1.11 99.91 989 242.45 242.45 239783.05 58135400.472499
24	541760 22867 116 543897 1.11 99.91 989 -1 45.3441 14598.06208 527949.59218354
25	564627 24692 116 543897 1.11 99.91 989 -0.0982983 3.48766 448.1046434766 937.88072863481
26	589319 17510 116 543897 1.11 99.91 989 3 3 2967 8901
27	606829 26376 116 543897 1.11 99.91 989 -2.79595 1.34985 8.9460501429699 184.02335167644
28	633205 26388 116 543897 1.11 99.91 989 -3.52077 1.5 9.9388884732033 221.8985984102
29	659593 22845 116 543897 1.11 99.91 989 29.8465 37.0066 35246.7615 1258432.4639891
30	682438 23355 116 543897 1.11 99.91 989 33.5199 3554.54 1772887.799 4182832630.7706
31	705793 22455 116 543897 1.11 99.91 989 242.45 249.05 241852.15 59150718.732501
32	728248 23258 117 543898 1.11 99.91 989 2 62.4282 22399.24059 1079432.9558885
33	751506 25315 117 543898 1.11 99.91 989 -1.50416 4.45845 28.855362186203 1009.2943378019
34	776821 17510 117 543898 1.11 99.91 989 4 4 3956 15824
35	794331 26008 117 543898 1.11 99.91 989 -3.07032 1.49874 -9.2581972724317 330.20944131182
36	820339 25913 117 543898 1.11 99.91 989 -3.52364 1.5 -8.278064773239 368.81861556219
37	846252 23327 117 543898 1.11 99.91 989 26.9609 36.5042 34864.9923 1233446.5268815
38	869579 23328 117 543898 1.11 99.91 989 27.5199 3510.45 1758167.9372 4112749707.7229
39	892907 22455 117 543898 1.11 99.91 989 242.45 245.75 240568.45 58518832.7525
40	915362 23049 118 543899 1.11 99.91 989 -1 122.616 30874.094654 2619831.5165967
41	938411 24443 118 543899 1.11 99.91 989 -0.000471695 12.1565 1215.3532484683 6124.9045252217
42	962854 17510 118 543899 1.11 99.91 989 5 5 4945 24725
43	980364 26071 118 543899 1.11 99.91 989 -3.12958 1.49985 -21.026696811956 385.85158382526
44	1006435 26237 118 543899 1.11 99.91 989 -3.52314 1.5 -19.882987332211 446.12016617738
45	1032672 22115 118 543899 1.11 99.91 989 25.855 36.1111 34256.7452 1190682.6148492
46	1054787 23362 118 543899 1.11 99.91 989 21.5199 3443.69 1740740.4399 4021802608.8789
47	1078149 22455 118 543899 1.11 99.91 989 242.45 252.35 241327.45 58895823.4325
48	1100604 22344 119 543900 1.11 99.91 989 -1 43.8289 11075.02138 371587.96108828
49	1122948 23723 119 543900 1.11 99.91 989 -0.000317659 3.53126 313.05586430118 465.45739938817
50	1146671 17510 119 543900 1.11 99.91 989 6 6 5934 35604
51	1164181 25934 119 543900 1.11 99.91 989 -2.60234 0.784604 19.089825897635 60.378925425706
52	1190115 25971 119 543900 1.11 99.91 989 -3.52265 1.04331 20.999821893888 105.98758765919
53	1216086 23018 119 543900 1.11 99.91 989 33.6842 38.0261 35986.2223 1310557.1819553
54	1239104 23353 119 543900 1.11 99.91 989 15.5199 3610.44 1774997.4067 4239200802.0839
55	1262457 22455 119 543900 1.11 99.91 989 242.45 249.05 242340.55 59390593.092501
56	1284912 20802 120 543901 1.11 99.91 989 -1 2.90028 725.22755 3367.4761160621
57	1305714 21812 120 543901 1.11 99.91 989 -4.60759e-06 0.0355024 9.0075720106329 0.24116622271089
58	1327526 17510 120 543901 1.11 99.91 989 7 7 6923 48461
59	1345036 25166 120 543901 1.11 99.91 989 -0.0666555 1.18505 18.944685523458 17.728979213243
60	1370202 26920 120 543901 1.11 99.91 989 -0.0820475 1.5 19.172887924801 25.234781392236
61	1397122 21524 120 543901 1.11 99.91 989 35.8107 38.0821 36528.4308 1350167.4360492
62	1418646 23372 120 543901 1.11 99.91 989 9.5199 3658.66 1789299.3531 4335221758.9198
63	1442018 22455 120 543901 1.11 99.91 989 242.45 249.05 242023.75 59234515.632501
64	1464473 40020 702 543943 1.214462500346 99.914465475763 988 0.099987480335 0.100008786773 98.800003455749 9.8800007024938
65	1504493 27281 702 543943 1.214462500346 99.914465475763 988 4 4 3952 15808
66	1531774 40002 769 544004 1.22169752036 99.921700442166 988 0.099987480333 0.100008687078 98.800003402138 9.880000691496
67	1571776 27260 769 544004 1.22169752036 99.921700442166 988 3 3 2964 8892
68	1599036 40027 903 544144 1.247009640443 99.947013002503 988 0.099987480334 0.100008687127 98.800003842392 9.8800007793291
69	1639063 27281 903 544144 1.247009640443 99.947013002503 988 7 7 6916 48412
70	1666344 40033 970 544205 1.254140740512 99.954144044431 988 0.099987480334 0.100008737593 98.800003784251 9.8800007679888
71	1706377 27285 970 544205 1.254140740512 99.954144044431 988 2 2 1976 3952
72	1733662 40017 1038 544291 1.273478820567 99.973482955467 988 0.099987480334 0.100008687172 98.800004615232 9.8800009338895
73	1773679 27271 1038 544291 1.273478820567 99.973482955467 988 6 6 5928 35568
74	1800950 40002 1105 544352 1.285042840581 99.985033844759 988 0.099987480333 0.100008835185 98.79999148451 9.8799983081753
75	1840952 27263 1105 544352 1.285042840581 99.985033844759 988 5 5 4940 24700
76	1868215 39997 1166 544419 1.293967920636 99.993972182469 988 0.099987480334 0.10000873762 98.800004742165 9.8800009595719
77	1908212 27263 1166 544419 1.293967920636 99.993972182469 988 1 1 988 988
78	1935475 39997 1166 544419 1.293967920636 99.993972182469 988 0.099987480334 0.10000873762 98.800004742165 9.8800009595719
79	1975472 27263 1166 544419 1.293967920636 99.993972182469 988 1 1 988 988
80	2002735 40010 1172 544413 1.29396794065 99.993972148361 988 0.099987480334 0.100008737622 98.800004688043 9.8800009487475
81	2042745 27276 1172 544413 1.29396794065 99.993972148361 988 2 2 1976 3952
82	2070021 40013 1178 544425 1.293967960664 99.99397220179 988 0.099987480334 0.100008737624 98.800004721458 9.8800009554305
83	2110034 27273 1178 544425 1.293967960664 99.99397220179 988 3 3 2964 8892
84	2137307 40014 1184 544431 1.293967980677 99.993972348437 988 0.099987480334 0.100008737628 98.800004848092 9.8800009807573
85	2177321 27288 1184 544431 1.293967980677 99.993972348437 988 4 4 3952 15808
86	2204609 40030 1190 544437 1.293968000691 99.993972571331 988 0.099987480334 0.100008737632 98.800005050972 9.8800010213333
87	2244639 27294 1190 544437 1.293968000691 99.993972571331 988 5 5 4940 24700
88	2271933 40029 1196 544401 1.293968020705 99.993972015938 988 0.099987480334 0.100008737639 98.800004475565 9.8800009062519
89	2311962 27280 1196 544401 1.293968020705 99.993972015938 988 6 6 5928 35568
90	2339242 40016 1202 544407 1.293968040719 99.993972116799 988 0.099987480334 0.100008737646 98.800004556412 9.8800009224213
91	2379258 27269 1202 544407 1.293968040719 99.993972116799 988 7 7 6916 48412
92	2406527 1459 5026 544439 2 100 99 0 0 0 0
93	2407986 2067 5026 544439 2 100 99 0.022473 0.02613030338 2.47160630338 0.061713137820731
94	2410053 1459 5026 544439 2 100 99 0 0 0 0
95	2411512 1459 5027 544440 2 100 99 1 1 99 99
96	2412971 2068 5027 544440 2 100 99 0.022473 0.025898 2.471214046036 0.06169302261439
97	2415039 1459 5027 544440 2 100 99 0 0 0 0
98	2416498 1459 5028 544441 2 100 99 2 2 198 396
99	2417957 2068 5028 544441 2 100 99 0.022473 0.025898 2.471214092388 0.061693024942658
100	2420025 1558 5028 544441 2 100 99 0 0 0 0
101	2421583 1558 5029 544442 2 100 99 3 3 297 891
102	2423141 2167 5029 544442 2 100 99 0.022473 0.025898 2.471214138864 0.061693027277158
103	2425308 1558 5029 544442 2 100 99 0 0 0 0
104	2426866 1558 5030 544443 2 100 99 4 4 396 1584
105	2428424 2166 5030 544443 2 100 99 0.022473 0.025898 2.47121418539 0.061693029614174
106	2430590 1558 5030 544443 2 100 99 0 0 0 0
107	2432148 1558 5031 544444 2 100 99 5 5 495 2475
108	2433706 2167 5031 544444 2 100 99 0.022473 0.025898 2.471214231948 0.061693031952802
109	2435873 1558 5031 544444 2 100 99 0 0 0 0
110	2437431 1558 5032 544445 2 100 99 6 6 594 3564
111	2438989 2167 5032 544445 2 100 99 0.022473 0.025898 2.471214278522 0.061693034292238
112	2441156 1558 5032 544445 2 100 99 0 0 0 0
113	2442714 1558 5033 544446 2 100 99 7 7 693 4851
114	2444272 2167 5033 544446 2 100 99 0.022473 0.025931325104 2.471214325104 0.061693091018649
115	2446439 1558 5033 544446 2 100 99 0 0 0 0

