file 1790215 1720703664                                         
version 3
run BreakRanksNoGui-411-20240711-15:14:17-294515
attr configname BreakRanksNoGui
attr datetime 20240711-15:14:17
attr datetimef 20240711-151417
attr experiment BreakRanksNoGui
attr inifile omnetpp.ini
attr iterationvars "$nCars=6, $platoonSize=6, $nLanes=1, $ploegH=0.5, $controller=1, $headway=0.1, $leaderHeadway=1.2, $leaderSpeed=130, $breakRanksSafetyDistance=20, $minSpeed=120, $maxSpeed=140, $beaconInterval=0.1, $priority=4, $packetSize=200, $sController=\"CACC\", $0=2, $1=0"
attr iterationvarsd nCars=6/platoonSize=6/nLanes=1/ploegH=0.5/controller=1/headway=0.1/leaderHeadway=1.2/leaderSpeed=130/breakRanksSafetyDistance=20/minSpeed=120/maxSpeed=140/beaconInterval=0.1/priority=4/packetSize=200/sController=CACC/2/0
attr iterationvarsf nCars=6,platoonSize=6,nLanes=1,ploegH=0.5,controller=1,headway=0.1,leaderHeadway=1.2,leaderSpeed=130,breakRanksSafetyDistance=20,minSpeed=120,maxSpeed=140,beaconInterval=0.1,priority=4,packetSize=200,sController=CACC,2,0-
attr measurement "$nCars=6, $platoonSize=6, $nLanes=1, $ploegH=0.5, $controller=1, $headway=0.1, $leaderHeadway=1.2, $leaderSpeed=130, $breakRanksSafetyDistance=20, $minSpeed=120, $maxSpeed=140, $beaconInterval=0.1, $priority=4, $packetSize=200, $sController=\"CACC\", $0=2, $1=0"
attr network Highway
attr processid 294515
attr repetition 1
attr replication #1
attr resultdir results
attr runnumber 411
attr seedset 1
itervar beaconInterval 0.1
itervar breakRanksSafetyDistance 20
itervar controller 1
itervar headway 0.1
itervar leaderHeadway 1.2
itervar leaderSpeed 130
itervar maxSpeed 140
itervar minSpeed 120
itervar nCars 6
itervar nLanes 1
itervar packetSize 200
itervar platoonSize 6
itervar ploegH 0.5
itervar priority 4
itervar sController "\"CACC\""
config image-path ../../../veins/images
config repeat 10
config extends BreakRanks
config *.manager.command "\"sumo\""
config *.manager.ignoreGuiCommands true
config output-vector-file "results/BreakRanks_1_0.1_130_20_6 /result_1.vec"
config output-scalar-file "results/BreakRanks_1_0.1_130_20_6 /result_1.sca"
config extends Platooning
config *.node[*].scenario_type "\"BreakRanksScenario\""
config *.manager.command "\"sumo-gui\""
config *.node[*].scenario_type "\"SimpleScenario\""
config cmdenv-express-mode true
config cmdenv-autoflush true
config cmdenv-status-frequency 15s
config num-rngs 6
config network Highway
config debug-on-errors true
config print-undisposed true
config *.playgroundSizeX 65000m
config *.playgroundSizeY 25000m
config *.playgroundSizeZ 50m
config sim-time-limit "100 s"
config *.annotations.draw false
config *.obstacles.debug false
config *.world.useTorus false
config *.world.use2D false
config *.manager.updateInterval 0.01s
config *.manager.host "\"localhost\""
config *.manager.moduleType "\"org.car2x.plexe.PlatoonCar\""
config *.manager.moduleName "\"node\""
config *.manager.moduleDisplayString "\"\""
config *.manager.autoShutdown true
config *.manager.margin 25
config *.connectionManager.sendDirect true
config *.connectionManager.maxInterfDist 2600m
config *.connectionManager.drawMaxIntfDist false
config *.**.nic.mac1609_4.useServiceChannel false
config *.**.nic.mac1609_4.txPower 100mW
config *.**.nic.mac1609_4.bitrate 6Mbps
config *.**.nic.mac1609_4.useAcks true
config *.**.nic.mac1609_4.ackErrorRate 0.0
config *.**.nic.mac1609_4.frameErrorRate 0.0
config *.**.nic.phy80211p.minPowerLevel -94dBm
config *.**.nic.phy80211p.maxTXPower 100mW
config *.**.nic.phy80211p.useNoiseFloor true
config *.**.nic.phy80211p.noiseFloor -95dBm
config *.**.nic.phy80211p.decider "xmldoc(\"config.xml\")"
config *.**.nic.phy80211p.analogueModels "xmldoc(\"config.xml\")"
config *.**.nic.phy80211p.usePropagationDelay true
config *.node[*].mobility.x 0
config *.node[*].mobility.y 0
config *.node[*].mobility.z 1.895
config seed-set 1
config **.seed 1
config *.node[*].prot.rng-0 2
config *.node[*].appl.rng-0 3
config *.node[*].scenario.rng-0 4
config **.traffic.rng-0 5
config *.manager.configFile "\"./sumocfg/freeway.sumo.cfg\""
config *.manager.launchConfig "xmldoc(\"./sumocfg/freeway.launchd.xml\")"
config **.numberOfCars 6
config **.numberOfCarsPerPlatoon 6
config **.numberOfLanes 1
config *.node[*].helper_type "\"PositionHelper\""
config *.node[*].scenario.caccC1 0.5
config *.node[*].scenario.caccXi 1
config *.node[*].scenario.caccOmegaN "0.2 Hz"
config *.node[*].scenario.caccSpacing "2 m"
config *.node[*].scenario.engineTau "0.5 s"
config *.node[*].scenario.ploegH 0.5s
config *.node[*].scenario.ploegKp 0.2
config *.node[*].scenario.ploegKd 0.7
config *.node[*].scenario.useRealisticEngine false
config *.node[*].scenario.useControllerAcceleration true
config *.node[*].scenario.nLanes 1
config **.numericController 1
config **.headway 0.1s
config *.node[*].scenario.accHeadway 0.1s
config *.node[*].scenario.leaderHeadway 1.2s
config *.node[*].scenario.leaderSpeed 130kmph
config *.node[*].appl_type "\"SimplePlatooningApp\""
config *.node[*].appl.*.scalar-recording true
config *.node[*].appl.*.vector-recording true
config *.node[0].appl.breakRanksSafetyDistance 20m
config *.node[*].appl.minSpeed 120kmph
config *.node[*].appl.maxSpeed 140kmph
config *.node[*].protocol_type "\"SimplePlatooningBeaconing\""
config *.node[*].prot.*.scalar-recording true
config *.node[*].prot.*.vector-recording true
config *.node[*].prot.beaconingInterval 0.1s
config *.node[*].prot.priority 4
config *.node[*].prot.packetSize 200
config **.traffic_type "\"PlatoonsTrafficManager\""
config **.traffic.platoonInsertTime "1 s"
config **.traffic.platoonInsertSpeed 130kmph
config **.traffic.nCars 6
config **.traffic.platoonSize 6
config **.traffic.nLanes 1
config **.traffic.platooningVType "\"vtypeauto\""
config **.traffic.controller "\"CACC\""
config **.traffic.platoonInsertDistance 2m
config **.traffic.platoonInsertHeadway 0s
config **.traffic.platoonLeaderHeadway 1.2s
config **.scalar-recording false
config **.vector-recording false

vector 0 Highway.node[0].appl distance ETV
vector 1 Highway.node[0].appl relativeSpeed ETV
vector 2 Highway.node[0].appl nodeId ETV
vector 3 Highway.node[0].appl acceleration ETV
vector 4 Highway.node[0].appl controllerAcceleration ETV
vector 5 Highway.node[0].appl speed ETV
vector 6 Highway.node[0].appl posx ETV
vector 7 Highway.node[0].appl posy ETV
vector 8 Highway.node[1].appl distance ETV
vector 9 Highway.node[1].appl relativeSpeed ETV
vector 10 Highway.node[1].appl nodeId ETV
vector 11 Highway.node[1].appl acceleration ETV
vector 12 Highway.node[1].appl controllerAcceleration ETV
vector 13 Highway.node[1].appl speed ETV
vector 14 Highway.node[1].appl posx ETV
vector 15 Highway.node[1].appl posy ETV
vector 16 Highway.node[2].appl distance ETV
vector 17 Highway.node[2].appl relativeSpeed ETV
vector 18 Highway.node[2].appl nodeId ETV
vector 19 Highway.node[2].appl acceleration ETV
vector 20 Highway.node[2].appl controllerAcceleration ETV
vector 21 Highway.node[2].appl speed ETV
vector 22 Highway.node[2].appl posx ETV
vector 23 Highway.node[2].appl posy ETV
vector 24 Highway.node[3].appl distance ETV
vector 25 Highway.node[3].appl relativeSpeed ETV
vector 26 Highway.node[3].appl nodeId ETV
vector 27 Highway.node[3].appl acceleration ETV
vector 28 Highway.node[3].appl controllerAcceleration ETV
vector 29 Highway.node[3].appl speed ETV
vector 30 Highway.node[3].appl posx ETV
vector 31 Highway.node[3].appl posy ETV
vector 32 Highway.node[4].appl distance ETV
vector 33 Highway.node[4].appl relativeSpeed ETV
vector 34 Highway.node[4].appl nodeId ETV
vector 35 Highway.node[4].appl acceleration ETV
vector 36 Highway.node[4].appl controllerAcceleration ETV
vector 37 Highway.node[4].appl speed ETV
vector 38 Highway.node[4].appl posx ETV
vector 39 Highway.node[4].appl posy ETV
vector 40 Highway.node[5].appl distance ETV
vector 41 Highway.node[5].appl relativeSpeed ETV
vector 42 Highway.node[5].appl nodeId ETV
vector 43 Highway.node[5].appl acceleration ETV
vector 44 Highway.node[5].appl controllerAcceleration ETV
vector 45 Highway.node[5].appl speed ETV
vector 46 Highway.node[5].appl posx ETV
vector 47 Highway.node[5].appl posy ETV
vector 48 Highway.node[2].prot frontDelay ETV
vector 49 Highway.node[2].prot frontDelayId ETV
vector 50 Highway.node[4].prot frontDelay ETV
vector 51 Highway.node[4].prot frontDelayId ETV
vector 52 Highway.node[5].prot frontDelay ETV
vector 53 Highway.node[5].prot frontDelayId ETV
vector 54 Highway.node[1].prot leaderDelay ETV
vector 55 Highway.node[1].prot leaderDelayId ETV
vector 56 Highway.node[1].prot frontDelay ETV
vector 57 Highway.node[1].prot frontDelayId ETV
vector 58 Highway.node[2].prot leaderDelay ETV
vector 59 Highway.node[2].prot leaderDelayId ETV
vector 60 Highway.node[3].prot leaderDelay ETV
vector 61 Highway.node[3].prot leaderDelayId ETV
vector 62 Highway.node[4].prot leaderDelay ETV
vector 63 Highway.node[4].prot leaderDelayId ETV
vector 64 Highway.node[5].prot leaderDelay ETV
vector 65 Highway.node[5].prot leaderDelayId ETV
vector 66 Highway.node[3].prot frontDelay ETV
vector 67 Highway.node[3].prot frontDelayId ETV
vector 68 Highway.node[0].prot nodeId ETV
vector 69 Highway.node[0].prot busyTime ETV
vector 70 Highway.node[0].prot collisions ETV
vector 71 Highway.node[1].prot nodeId ETV
vector 72 Highway.node[1].prot busyTime ETV
vector 73 Highway.node[1].prot collisions ETV
vector 74 Highway.node[2].prot nodeId ETV
vector 75 Highway.node[2].prot busyTime ETV
vector 76 Highway.node[2].prot collisions ETV
vector 77 Highway.node[3].prot nodeId ETV
vector 78 Highway.node[3].prot busyTime ETV
vector 79 Highway.node[3].prot collisions ETV
vector 80 Highway.node[4].prot nodeId ETV
vector 81 Highway.node[4].prot busyTime ETV
vector 82 Highway.node[4].prot collisions ETV
vector 83 Highway.node[5].prot nodeId ETV
vector 84 Highway.node[5].prot busyTime ETV
vector 85 Highway.node[5].prot collisions ETV
0	9821 17366 113 316165 1.11 99.91 989 -1 -1 -989 989
1	27187 16377 113 316165 1.11 99.91 989 0 0 0 0
2	43564 16377 113 316165 1.11 99.91 989 0 0 0 0
3	59941 18665 113 316165 1.11 99.91 989 -3.14892e-05 0.000707784 0.010991577126781 6.0508064149601e-06
4	78606 26323 113 316165 1.11 99.91 989 -4.89399e-05 0.00109259 0.010614843047836 8.6815283230331e-06
5	104929 22304 113 316165 1.11 99.91 989 36.11 36.1111 35713.866699999 1289666.6073546
6	127233 22200 113 316165 1.11 99.91 989 40.8599 3608.64 1804674.9964 4344283298.2688
7	149433 21322 113 316165 1.11 99.91 989 242.45 242.45 239783.05 58135400.472499
8	170755 20710 114 316166 1.11 99.91 989 -1 19.9968 10091.14052 189350.58749364
9	191465 21945 114 316166 1.11 99.91 989 -2.36679e-05 1.43318 179.96865041075 170.61161445173
10	213410 17366 114 316166 1.11 99.91 989 1 1 989 989
11	230776 26421 114 316166 1.11 99.91 989 -0.714485 0.115811 -11.061427242806 12.993398844722
12	257197 26465 114 316166 1.11 99.91 989 -1.09969 0.116763 -10.176122382034 16.587088793012
13	283662 22224 114 316166 1.11 99.91 989 34.6779 36.1111 35212.0743 1253951.1892942
14	305886 23230 114 316166 1.11 99.91 989 34.8599 3552.51 1779688.7272 4230960308.587
15	329116 22311 114 316166 1.11 99.91 989 242.45 245.75 240769.75 58617107.4125
16	351427 23142 115 316167 1.11 99.91 989 2 45.2575 23359.45437 778879.52920045
17	374569 25127 115 316167 1.11 99.91 989 0 1.1325 192.6097593168 138.66478612322
18	399696 17366 115 316167 1.11 99.91 989 2 2 1978 3956
19	417062 25890 115 316167 1.11 99.91 989 -0.84613 0.179027 -0.03305093167999 18.555949068816
20	442952 25897 115 316167 1.11 99.91 989 -1.07703 0.18021 0.5134926059274 21.33642096662
21	468849 23185 115 316167 1.11 99.91 989 33.5934 36.1111 35341.2891 1263364.4524249
22	492034 23199 115 316167 1.11 99.91 989 28.8599 3559.38 1764209.4188 4177846951.1021
23	515233 22311 115 316167 1.11 99.91 989 242.45 242.45 239783.05 58135400.472499
24	537544 22400 116 316168 1.11 99.91 989 -1 43.9919 15756.03997 447579.89381946
25	559944 24082 116 316168 1.11 99.91 989 -0.00642282 0.962002 179.97739639855 118.31284122313
26	584026 17366 116 316168 1.11 99.91 989 3 3 2967 8901
27	601392 25945 116 316168 1.11 99.91 989 -1.01706 0.214275 -11.06127063739 35.666312677958
28	627337 25962 116 316168 1.11 99.91 989 -1.2559 0.21541 -10.176818997449 41.622628422546
29	653299 23031 116 316168 1.11 99.91 989 32.7394 36.1111 34852.147 1229011.3028196
30	676330 23205 116 316168 1.11 99.91 989 22.8599 3504.52 1740391.4614 4070056032.0525
31	699535 22311 116 316168 1.11 99.91 989 242.45 252.35 241357.15 58908297.432501
32	721846 22996 117 316169 1.11 99.91 989 2 131.115 26463.43352 1365919.1559224
33	744842 24444 117 316169 1.11 99.91 989 -1.39994e-06 3.99999 1138.0967855265 3333.285876959
34	769286 17366 117 316169 1.11 99.91 989 4 4 3956 15824
35	786652 25890 117 316169 1.11 99.91 989 -1.43305 0.231507 -31.058350116063 73.422540370877
36	812542 25816 117 316169 1.11 99.91 989 -1.5 0.232375 -30.033504395344 84.782353219027
37	838358 22305 117 316169 1.11 99.91 989 32.0675 36.1111 34108.5912 1178423.3451074
38	860663 23214 117 316169 1.11 99.91 989 16.8599 3424.26 1713462.9436 3942372726.3156
39	883877 22311 117 316169 1.11 99.91 989 242.45 242.45 239783.05 58135400.472499
40	906188 23151 118 316170 1.11 99.91 989 1.99612 91.8146 27489.16074 1415039.5101186
41	929339 24881 118 316170 1.11 99.91 989 -2.09003 0.755781 -155.29665966541 624.95381889743
42	954220 17366 118 316170 1.11 99.91 989 5 5 4945 24725
43	971586 25594 118 316170 1.11 99.91 989 -1.15805 0.587453 -12.210881313108 59.564523385644
44	997180 25618 118 316170 1.11 99.91 989 -1.39179 0.913071 -12.221013166116 69.858918203532
45	1022798 23012 118 316170 1.11 99.91 989 31.5183 37.0408 34987.2822 1240166.8250572
46	1045810 23209 118 316170 1.11 99.91 989 10.8599 3506.04 1710911.3583 3966351147.1558
47	1069019 22311 118 316170 1.11 99.91 989 242.45 245.75 240287.95 58381892.6525
48	1091330 39819 466 316196 1.212420260181 99.912422144176 988 0.099987156215 0.100012947157 98.800001124162 9.8800002277418
49	1131149 27145 466 316196 1.212420260181 99.912422144176 988 2 2 1976 3952
50	1158294 39807 518 316266 1.235021300209 99.935023550257 988 0.099987208464 0.100012961623 98.800001490215 9.8800003008219
51	1198101 27125 518 316266 1.235021300209 99.935023550257 988 4 4 3952 15808
52	1225226 39795 624 316360 1.297370360251 99.997372849716 988 0.099987151681 0.100012956249 98.800001729632 9.8800003489538
53	1265021 27111 624 316360 1.297370360251 99.997372849716 988 5 5 4940 24700
54	1292132 39816 668 316410 1.297793440306 99.997783379957 988 0.099987085439 0.100012932283 98.799989179818 9.8799978389259
55	1331948 27133 668 316410 1.297793440306 99.997783379957 988 1 1 988 988
56	1359081 39816 668 316410 1.297793440306 99.997783379957 988 0.099987085439 0.100012932283 98.799989179818 9.8799978389259
57	1398897 27133 668 316410 1.297793440306 99.997783379957 988 1 1 988 988
58	1426030 39784 674 316404 1.29779346032 99.9977833564 988 0.099987085075 0.100012932298 98.799989136247 9.8799978302117
59	1465814 27111 674 316404 1.29779346032 99.9977833564 988 2 2 1976 3952
60	1492925 39787 680 316422 1.297793480334 99.997783541285 988 0.099987085439 0.100012932326 98.799989301118 9.8799978631859
61	1532712 27118 680 316422 1.297793480334 99.997783541285 988 3 3 2964 8892
62	1559830 39811 686 316428 1.297793500347 99.997783808026 988 0.099987086107 0.100012932369 98.799989547846 9.8799979125315
63	1599641 27126 686 316428 1.297793500347 99.997783808026 988 4 4 3952 15808
64	1626767 39814 692 316416 1.297793520361 99.997783534866 988 0.099987084922 0.10001293243 98.799989254672 9.8799978538967
65	1666581 27135 692 316416 1.297793520361 99.997783534866 988 5 5 4940 24700
66	1693716 39763 725 316157 1.307199480334 99.907202279266 987 0.099987231875 0.100012958808 98.700002039099 9.870000410712
67	1733479 27102 725 316157 1.307199480334 99.907202279266 987 3 3 2961 8883
68	1760581 1444 2906 316430 2 100 99 0 0 0 0
69	1762025 2051 2906 316430 2 100 99 0.016545 0.019601399412 1.853581399412 0.034710301028909
70	1764076 1444 2906 316430 2 100 99 0 0 0 0
71	1765520 1444 2907 316431 2 100 99 1 1 99 99
72	1766964 2051 2907 316431 2 100 99 0.016545 0.019434 1.853318159448 0.034700152001187
73	1769015 1444 2907 316431 2 100 99 0 0 0 0
74	1770459 1444 2908 316432 2 100 99 2 2 198 396
75	1771903 2050 2908 316432 2 100 99 0.016544 0.019434 1.85331731931 0.034700124947054
76	1773953 1444 2908 316432 2 100 99 0 0 0 0
77	1775397 1444 2909 316433 2 100 99 3 3 297 891
78	1776841 2051 2909 316433 2 100 99 0.016545 0.019434 1.853318479278 0.034700164074974
79	1778892 1444 2909 316433 2 100 99 0 0 0 0
80	1780336 1444 2910 316434 2 100 99 4 4 396 1584
81	1781780 2051 2910 316434 2 100 99 0.016545 0.019434 1.853318639256 0.034700170114323
82	1783831 1444 2910 316434 2 100 99 0 0 0 0
83	1785275 1444 2911 316435 2 100 99 5 5 495 2475
84	1786719 2051 2911 316435 2 100 99 0.016545 0.019467799282 1.853318799282 0.034700216173884
85	1788770 1444 2911 316435 2 100 99 0 0 0 0

