version 3
run BreakRanksNoGui-596-20240711-12:43:07-287173
attr configname BreakRanksNoGui
attr datetime 20240711-12:43:07
attr datetimef 20240711-124307
attr experiment BreakRanksNoGui
attr inifile omnetpp.ini
attr iterationvars "$nCars=9, $platoonSize=8, $nLanes=1, $ploegH=0.5, $controller=1, $headway=0.1, $leaderHeadway=1.2, $leaderSpeed=110, $breakRanksSafetyDistance=10, $minSpeed=100, $maxSpeed=120, $beaconInterval=0.1, $priority=4, $packetSize=200, $sController=\"CACC\", $0=2, $1=0"
attr iterationvarsd nCars=9/platoonSize=8/nLanes=1/ploegH=0.5/controller=1/headway=0.1/leaderHeadway=1.2/leaderSpeed=110/breakRanksSafetyDistance=10/minSpeed=100/maxSpeed=120/beaconInterval=0.1/priority=4/packetSize=200/sController=CACC/2/0
attr iterationvarsf nCars=9,platoonSize=8,nLanes=1,ploegH=0.5,controller=1,headway=0.1,leaderHeadway=1.2,leaderSpeed=110,breakRanksSafetyDistance=10,minSpeed=100,maxSpeed=120,beaconInterval=0.1,priority=4,packetSize=200,sController=CACC,2,0-
attr measurement "$nCars=9, $platoonSize=8, $nLanes=1, $ploegH=0.5, $controller=1, $headway=0.1, $leaderHeadway=1.2, $leaderSpeed=110, $breakRanksSafetyDistance=10, $minSpeed=100, $maxSpeed=120, $beaconInterval=0.1, $priority=4, $packetSize=200, $sController=\"CACC\", $0=2, $1=0"
attr network Highway
attr processid 287173
attr repetition 6
attr replication #6
attr resultdir results
attr runnumber 596
attr seedset 6
itervar beaconInterval 0.1
itervar breakRanksSafetyDistance 10
itervar controller 1
itervar headway 0.1
itervar leaderHeadway 1.2
itervar leaderSpeed 110
itervar maxSpeed 120
itervar minSpeed 100
itervar nCars 9
itervar nLanes 1
itervar packetSize 200
itervar platoonSize 8
itervar ploegH 0.5
itervar priority 4
itervar sController "\"CACC\""
config image-path ../../../veins/images
config repeat 10
config extends BreakRanks
config *.manager.command "\"sumo\""
config *.manager.ignoreGuiCommands true
config output-vector-file "results/BreakRanks_1_0.1_110_10_8 /result_6.vec"
config output-scalar-file "results/BreakRanks_1_0.1_110_10_8 /result_6.sca"
config extends Platooning
config *.node[*].scenario_type "\"BreakRanksScenario\""
config *.manager.command "\"sumo-gui\""
config *.node[*].scenario_type "\"SimpleScenario\""
config cmdenv-express-mode true
config cmdenv-autoflush true
config cmdenv-status-frequency 15s
config num-rngs 6
config network Highway
config debug-on-errors true
config print-undisposed true
config *.playgroundSizeX 65000m
config *.playgroundSizeY 25000m
config *.playgroundSizeZ 50m
config sim-time-limit "100 s"
config *.annotations.draw false
config *.obstacles.debug false
config *.world.useTorus false
config *.world.use2D false
config *.manager.updateInterval 0.01s
config *.manager.host "\"localhost\""
config *.manager.moduleType "\"org.car2x.plexe.PlatoonCar\""
config *.manager.moduleName "\"node\""
config *.manager.moduleDisplayString "\"\""
config *.manager.autoShutdown true
config *.manager.margin 25
config *.connectionManager.sendDirect true
config *.connectionManager.maxInterfDist 2600m
config *.connectionManager.drawMaxIntfDist false
config *.**.nic.mac1609_4.useServiceChannel false
config *.**.nic.mac1609_4.txPower 100mW
config *.**.nic.mac1609_4.bitrate 6Mbps
config *.**.nic.mac1609_4.useAcks true
config *.**.nic.mac1609_4.ackErrorRate 0.0
config *.**.nic.mac1609_4.frameErrorRate 0.0
config *.**.nic.phy80211p.minPowerLevel -94dBm
config *.**.nic.phy80211p.maxTXPower 100mW
config *.**.nic.phy80211p.useNoiseFloor true
config *.**.nic.phy80211p.noiseFloor -95dBm
config *.**.nic.phy80211p.decider "xmldoc(\"config.xml\")"
config *.**.nic.phy80211p.analogueModels "xmldoc(\"config.xml\")"
config *.**.nic.phy80211p.usePropagationDelay true
config *.node[*].mobility.x 0
config *.node[*].mobility.y 0
config *.node[*].mobility.z 1.895
config seed-set 6
config **.seed 6
config *.node[*].prot.rng-0 2
config *.node[*].appl.rng-0 3
config *.node[*].scenario.rng-0 4
config **.traffic.rng-0 5
config *.manager.configFile "\"./sumocfg/freeway.sumo.cfg\""
config *.manager.launchConfig "xmldoc(\"./sumocfg/freeway.launchd.xml\")"
config **.numberOfCars 9
config **.numberOfCarsPerPlatoon 8
config **.numberOfLanes 1
config *.node[*].helper_type "\"PositionHelper\""
config *.node[*].scenario.caccC1 0.5
config *.node[*].scenario.caccXi 1
config *.node[*].scenario.caccOmegaN "0.2 Hz"
config *.node[*].scenario.caccSpacing "2 m"
config *.node[*].scenario.engineTau "0.5 s"
config *.node[*].scenario.ploegH 0.5s
config *.node[*].scenario.ploegKp 0.2
config *.node[*].scenario.ploegKd 0.7
config *.node[*].scenario.useRealisticEngine false
config *.node[*].scenario.useControllerAcceleration true
config *.node[*].scenario.nLanes 1
config **.numericController 1
config **.headway 0.1s
config *.node[*].scenario.accHeadway 0.1s
config *.node[*].scenario.leaderHeadway 1.2s
config *.node[*].scenario.leaderSpeed 110kmph
config *.node[*].appl_type "\"SimplePlatooningApp\""
config *.node[*].appl.*.scalar-recording true
config *.node[*].appl.*.vector-recording true
config *.node[0].appl.breakRanksSafetyDistance 10m
config *.node[*].appl.minSpeed 100kmph
config *.node[*].appl.maxSpeed 120kmph
config *.node[*].protocol_type "\"SimplePlatooningBeaconing\""
config *.node[*].prot.*.scalar-recording true
config *.node[*].prot.*.vector-recording true
config *.node[*].prot.beaconingInterval 0.1s
config *.node[*].prot.priority 4
config *.node[*].prot.packetSize 200
config **.traffic_type "\"PlatoonsTrafficManager\""
config **.traffic.platoonInsertTime "1 s"
config **.traffic.platoonInsertSpeed 110kmph
config **.traffic.nCars 9
config **.traffic.platoonSize 8
config **.traffic.nLanes 1
config **.traffic.platooningVType "\"vtypeauto\""
config **.traffic.controller "\"CACC\""
config **.traffic.platoonInsertDistance 2m
config **.traffic.platoonInsertHeadway 0s
config **.traffic.platoonLeaderHeadway 1.2s
config **.scalar-recording false
config **.vector-recording false

vector 0 Highway.node[0].appl distance ETV
vector 1 Highway.node[0].appl relativeSpeed ETV
vector 2 Highway.node[0].appl nodeId ETV
vector 3 Highway.node[0].appl acceleration ETV
vector 4 Highway.node[0].appl controllerAcceleration ETV
vector 5 Highway.node[0].appl speed ETV
vector 6 Highway.node[0].appl posx ETV
vector 7 Highway.node[0].appl posy ETV
vector 8 Highway.node[1].appl distance ETV
vector 9 Highway.node[1].appl relativeSpeed ETV
vector 10 Highway.node[1].appl nodeId ETV
vector 11 Highway.node[1].appl acceleration ETV
vector 12 Highway.node[1].appl controllerAcceleration ETV
vector 13 Highway.node[1].appl speed ETV
vector 14 Highway.node[1].appl posx ETV
vector 15 Highway.node[1].appl posy ETV
vector 16 Highway.node[2].appl distance ETV
vector 17 Highway.node[2].appl relativeSpeed ETV
vector 18 Highway.node[2].appl nodeId ETV
vector 19 Highway.node[2].appl acceleration ETV
vector 20 Highway.node[2].appl controllerAcceleration ETV
vector 21 Highway.node[2].appl speed ETV
vector 22 Highway.node[2].appl posx ETV
vector 23 Highway.node[2].appl posy ETV
vector 24 Highway.node[3].appl distance ETV
vector 25 Highway.node[3].appl relativeSpeed ETV
vector 26 Highway.node[3].appl nodeId ETV
vector 27 Highway.node[3].appl acceleration ETV
vector 28 Highway.node[3].appl controllerAcceleration ETV
vector 29 Highway.node[3].appl speed ETV
vector 30 Highway.node[3].appl posx ETV
vector 31 Highway.node[3].appl posy ETV
vector 32 Highway.node[4].appl distance ETV
vector 33 Highway.node[4].appl relativeSpeed ETV
vector 34 Highway.node[4].appl nodeId ETV
vector 35 Highway.node[4].appl acceleration ETV
vector 36 Highway.node[4].appl controllerAcceleration ETV
vector 37 Highway.node[4].appl speed ETV
vector 38 Highway.node[4].appl posx ETV
vector 39 Highway.node[4].appl posy ETV
vector 40 Highway.node[5].appl distance ETV
vector 41 Highway.node[5].appl relativeSpeed ETV
vector 42 Highway.node[5].appl nodeId ETV
vector 43 Highway.node[5].appl acceleration ETV
vector 44 Highway.node[5].appl controllerAcceleration ETV
vector 45 Highway.node[5].appl speed ETV
vector 46 Highway.node[5].appl posx ETV
vector 47 Highway.node[5].appl posy ETV
vector 48 Highway.node[6].appl distance ETV
vector 49 Highway.node[6].appl relativeSpeed ETV
vector 50 Highway.node[6].appl nodeId ETV
vector 51 Highway.node[6].appl acceleration ETV
vector 52 Highway.node[6].appl controllerAcceleration ETV
vector 53 Highway.node[6].appl speed ETV
vector 54 Highway.node[6].appl posx ETV
vector 55 Highway.node[6].appl posy ETV
vector 56 Highway.node[7].appl distance ETV
vector 57 Highway.node[7].appl relativeSpeed ETV
vector 58 Highway.node[7].appl nodeId ETV
vector 59 Highway.node[7].appl acceleration ETV
vector 60 Highway.node[7].appl controllerAcceleration ETV
vector 61 Highway.node[7].appl speed ETV
vector 62 Highway.node[7].appl posx ETV
vector 63 Highway.node[7].appl posy ETV
vector 64 Highway.node[8].appl distance ETV
vector 65 Highway.node[8].appl relativeSpeed ETV
vector 66 Highway.node[8].appl nodeId ETV
vector 67 Highway.node[8].appl acceleration ETV
vector 68 Highway.node[8].appl controllerAcceleration ETV
vector 69 Highway.node[8].appl speed ETV
vector 70 Highway.node[8].appl posx ETV
vector 71 Highway.node[8].appl posy ETV
vector 72 Highway.node[1].prot leaderDelay ETV
vector 73 Highway.node[1].prot leaderDelayId ETV
vector 74 Highway.node[1].prot frontDelay ETV
vector 75 Highway.node[1].prot frontDelayId ETV
vector 76 Highway.node[2].prot leaderDelay ETV
vector 77 Highway.node[2].prot leaderDelayId ETV
vector 78 Highway.node[3].prot leaderDelay ETV
vector 79 Highway.node[3].prot leaderDelayId ETV
vector 80 Highway.node[4].prot leaderDelay ETV
vector 81 Highway.node[4].prot leaderDelayId ETV
vector 82 Highway.node[5].prot leaderDelay ETV
vector 83 Highway.node[5].prot leaderDelayId ETV
vector 84 Highway.node[6].prot leaderDelay ETV
vector 85 Highway.node[6].prot leaderDelayId ETV
vector 86 Highway.node[7].prot leaderDelay ETV
vector 87 Highway.node[7].prot leaderDelayId ETV
vector 88 Highway.node[7].prot frontDelay ETV
vector 89 Highway.node[7].prot frontDelayId ETV
vector 90 Highway.node[3].prot frontDelay ETV
vector 91 Highway.node[3].prot frontDelayId ETV
vector 92 Highway.node[6].prot frontDelay ETV
vector 93 Highway.node[6].prot frontDelayId ETV
vector 94 Highway.node[2].prot frontDelay ETV
vector 95 Highway.node[2].prot frontDelayId ETV
vector 96 Highway.node[4].prot frontDelay ETV
vector 97 Highway.node[4].prot frontDelayId ETV
vector 98 Highway.node[5].prot frontDelay ETV
vector 99 Highway.node[5].prot frontDelayId ETV
vector 100 Highway.node[0].prot nodeId ETV
vector 101 Highway.node[0].prot busyTime ETV
vector 102 Highway.node[0].prot collisions ETV
vector 103 Highway.node[1].prot nodeId ETV
vector 104 Highway.node[1].prot busyTime ETV
vector 105 Highway.node[1].prot collisions ETV
vector 106 Highway.node[2].prot nodeId ETV
vector 107 Highway.node[2].prot busyTime ETV
vector 108 Highway.node[2].prot collisions ETV
vector 109 Highway.node[3].prot nodeId ETV
vector 110 Highway.node[3].prot busyTime ETV
vector 111 Highway.node[3].prot collisions ETV
vector 112 Highway.node[4].prot nodeId ETV
vector 113 Highway.node[4].prot busyTime ETV
vector 114 Highway.node[4].prot collisions ETV
vector 115 Highway.node[5].prot nodeId ETV
vector 116 Highway.node[5].prot busyTime ETV
vector 117 Highway.node[5].prot collisions ETV
vector 118 Highway.node[6].prot nodeId ETV
vector 119 Highway.node[6].prot busyTime ETV
vector 120 Highway.node[6].prot collisions ETV
vector 121 Highway.node[7].prot nodeId ETV
vector 122 Highway.node[7].prot busyTime ETV
vector 123 Highway.node[7].prot collisions ETV
vector 124 Highway.node[8].prot nodeId ETV
vector 125 Highway.node[8].prot busyTime ETV
vector 126 Highway.node[8].prot collisions ETV
0	113	1.11	9311.83
0	670	1.21	9311.83
0	1227	1.31	9311.83
0	1784	1.41	9311.83
0	2341	1.51	9311.83
0	2898	1.61	9311.83
0	3455	1.71	9311.83
0	4012	1.81	9311.83
0	4569	1.91	9311.83
0	5135	2.01	9311.83
0	5692	2.11	-1
0	6249	2.21	-1
0	6806	2.31	-1
0	7363	2.41	-1
0	7920	2.51	-1
0	8477	2.61	-1
0	9034	2.71	-1
0	9591	2.81	-1
0	10148	2.91	-1
0	10714	3.01	-1
0	11271	3.11	-1
0	11828	3.21	-1
0	12385	3.31	-1
0	12942	3.41	-1
0	13499	3.51	-1
0	14056	3.61	-1
0	14613	3.71	-1
0	15170	3.81	-1
0	15727	3.91	-1
0	16293	4.01	-1
0	16850	4.11	-1
0	17407	4.21	-1
0	17964	4.31	-1
0	18521	4.41	-1
0	19078	4.51	-1
0	19635	4.61	-1
0	20192	4.71	-1
0	20749	4.81	-1
0	21306	4.91	-1
0	21872	5.01	-1
0	22429	5.11	-1
0	22986	5.21	-1
0	23543	5.31	-1
0	24100	5.41	-1
0	24657	5.51	-1
0	25214	5.61	-1
0	25771	5.71	-1
0	26328	5.81	-1
0	26885	5.91	-1
0	27451	6.01	-1
0	28008	6.11	-1
0	28565	6.21	-1
0	29122	6.31	-1
0	29679	6.41	-1
0	30236	6.51	-1
0	30793	6.61	-1
0	31350	6.71	-1
0	31907	6.81	-1
0	32464	6.91	-1
0	33030	7.01	-1
0	33587	7.11	-1
0	34144	7.21	-1
0	34701	7.31	-1
0	35258	7.41	-1
0	35815	7.51	-1
0	36372	7.61	-1
0	36929	7.71	-1
0	37486	7.81	-1
0	38043	7.91	-1
0	38609	8.01	-1
0	39166	8.11	-1
0	39723	8.21	-1
0	40280	8.31	-1
0	40837	8.41	-1
0	41394	8.51	-1
0	41951	8.61	-1
0	42508	8.71	-1
0	43065	8.81	-1
0	43622	8.91	-1
0	44188	9.01	-1
0	44745	9.11	-1
0	45302	9.21	-1
0	45859	9.31	-1
0	46416	9.41	-1
0	46973	9.51	-1
0	47530	9.61	-1
0	48087	9.71	-1
0	48644	9.81	-1
0	49201	9.91	-1
0	49852	10.01	-1
0	50416	10.11	-1
0	50980	10.21	-1
0	51544	10.31	-1
0	52108	10.41	-1
0	52672	10.51	-1
0	53236	10.61	-1
0	53800	10.71	-1
0	54364	10.81	-1
0	54928	10.91	-1
0	55501	11.01	-1
0	56065	11.11	-1
0	56629	11.21	-1
0	57193	11.31	-1
0	57757	11.41	-1
0	58321	11.51	-1
0	58885	11.61	-1
0	59449	11.71	-1
0	60013	11.81	-1
0	60577	11.91	-1
0	61150	12.01	-1
0	61714	12.11	-1
0	62278	12.21	-1
0	62842	12.31	-1
0	63406	12.41	-1
0	63970	12.51	-1
0	64534	12.61	-1
0	65098	12.71	-1
0	65662	12.81	-1
0	66226	12.91	-1
0	66799	13.01	-1
0	67363	13.11	-1
0	67927	13.21	-1
0	68491	13.31	-1
0	69055	13.41	-1
0	69619	13.51	-1
0	70183	13.61	-1
0	70747	13.71	-1
0	71311	13.81	-1
0	71875	13.91	-1
0	72448	14.01	-1
0	73012	14.11	-1
0	73576	14.21	-1
0	74140	14.31	-1
0	74704	14.41	-1
0	75268	14.51	-1
0	75832	14.61	-1
0	76396	14.71	-1
0	76960	14.81	-1
0	77524	14.91	-1
0	78097	15.01	-1
0	78661	15.11	-1
0	79225	15.21	-1
0	79789	15.31	-1
0	80353	15.41	-1
0	80917	15.51	-1
0	81481	15.61	-1
0	82045	15.71	-1
0	82609	15.81	-1
0	83173	15.91	-1
0	83746	16.01	-1
0	84310	16.11	-1
0	84874	16.21	-1
0	85438	16.31	-1
0	86002	16.41	-1
0	86566	16.51	-1
0	87130	16.61	-1
0	87694	16.71	-1
0	88258	16.81	-1
0	88822	16.91	-1
0	89395	17.01	-1
0	89959	17.11	-1
0	90523	17.21	-1
0	91087	17.31	-1
0	91651	17.41	-1
0	92215	17.51	-1
0	92779	17.61	-1
0	93343	17.71	-1
0	93907	17.81	-1
0	94471	17.91	-1
0	95044	18.01	-1
0	95608	18.11	-1
0	96172	18.21	-1
0	96736	18.31	-1
0	97300	18.41	-1
0	97864	18.51	-1
0	98428	18.61	-1
0	98992	18.71	-1
0	99556	18.81	-1
0	100120	18.91	-1
0	100693	19.01	-1
0	101257	19.11	-1
0	101821	19.21	-1
0	102385	19.31	-1
0	102949	19.41	-1
0	103513	19.51	-1
0	104077	19.61	-1
0	104641	19.71	-1
0	105205	19.81	-1
0	105769	19.91	-1
0	106342	20.01	-1
0	106906	20.11	-1
0	107470	20.21	-1
0	108034	20.31	-1
0	108598	20.41	-1
0	109162	20.51	-1
0	109726	20.61	-1
0	110290	20.71	-1
0	110854	20.81	-1
0	111418	20.91	-1
0	111991	21.01	-1
0	112555	21.11	-1
0	113119	21.21	-1
0	113683	21.31	-1
0	114247	21.41	-1
0	114811	21.51	-1
0	115375	21.61	-1
0	115939	21.71	-1
0	116503	21.81	-1
0	117067	21.91	-1
0	117640	22.01	-1
0	118204	22.11	-1
0	118768	22.21	-1
0	119332	22.31	-1
0	119896	22.41	-1
0	120460	22.51	-1
0	121024	22.61	-1
0	121588	22.71	-1
0	122152	22.81	-1
0	122716	22.91	-1
0	123289	23.01	-1
0	123853	23.11	-1
0	124417	23.21	-1
0	124981	23.31	-1
0	125545	23.41	-1
0	126109	23.51	-1
0	126673	23.61	-1
0	127237	23.71	-1
0	127801	23.81	-1
0	128365	23.91	-1
0	128938	24.01	-1
0	129502	24.11	-1
0	130066	24.21	-1
0	130630	24.31	-1
0	131194	24.41	-1
0	131758	24.51	-1
0	132322	24.61	-1
0	132886	24.71	-1
0	133450	24.81	-1
0	134014	24.91	-1
0	134587	25.01	-1
0	135151	25.11	-1
0	135715	25.21	-1
0	136279	25.31	-1
0	136843	25.41	-1
0	137407	25.51	-1
0	137971	25.61	-1
0	138535	25.71	-1
0	139099	25.81	-1
0	139663	25.91	-1
0	140236	26.01	-1
0	140800	26.11	-1
0	141364	26.21	-1
0	141928	26.31	-1
0	142492	26.41	-1
0	143056	26.51	-1
0	143620	26.61	-1
0	144184	26.71	-1
0	144748	26.81	-1
0	145312	26.91	-1
0	145885	27.01	-1
0	146449	27.11	-1
0	147013	27.21	-1
0	147577	27.31	-1
0	148141	27.41	-1
0	148705	27.51	-1
0	149269	27.61	-1
0	149833	27.71	-1
0	150397	27.81	-1
0	150961	27.91	-1
0	151534	28.01	-1
0	152098	28.11	-1
0	152662	28.21	-1
0	153226	28.31	-1
0	153790	28.41	-1
0	154354	28.51	-1
0	154918	28.61	-1
0	155482	28.71	-1
0	156046	28.81	-1
0	156610	28.91	-1
0	157183	29.01	-1
0	157747	29.11	-1
0	158311	29.21	-1
0	158875	29.31	-1
0	159439	29.41	-1
0	160003	29.51	-1
0	160567	29.61	-1
0	161131	29.71	-1
0	161695	29.81	-1
0	162259	29.91	-1
0	162832	30.01	-1
0	163396	30.11	-1
0	163960	30.21	-1
0	164524	30.31	-1
0	165088	30.41	-1
0	165652	30.51	-1
0	166216	30.61	-1
0	166780	30.71	-1
0	167344	30.81	-1
0	167908	30.91	-1
0	168481	31.01	-1
0	169045	31.11	-1
0	169609	31.21	-1
0	170173	31.31	-1
0	170737	31.41	-1
0	171301	31.51	-1
0	171865	31.61	-1
0	172429	31.71	-1
0	172993	31.81	-1
0	173557	31.91	-1
0	174130	32.01	-1
0	174694	32.11	-1
0	175258	32.21	-1
0	175822	32.31	-1
0	176386	32.41	-1
0	176950	32.51	-1
0	177514	32.61	-1
0	178078	32.71	-1
0	178642	32.81	-1
0	179206	32.91	-1
0	179779	33.01	-1
0	180343	33.11	-1
0	180907	33.21	-1
0	181471	33.31	-1
0	182035	33.41	-1
0	182599	33.51	-1
0	183163	33.61	-1
0	183727	33.71	-1
0	184291	33.81	-1
0	184855	33.91	-1
0	185428	34.01	-1
0	185992	34.11	-1
0	186556	34.21	-1
0	187120	34.31	-1
0	187684	34.41	-1
0	188248	34.51	-1
0	188812	34.61	-1
0	189376	34.71	-1
0	189940	34.81	-1
0	190504	34.91	-1
0	191077	35.01	-1
0	191641	35.11	-1
0	192205	35.21	-1
0	192769	35.31	-1
0	193333	35.41	-1
0	193897	35.51	-1
0	194461	35.61	-1
0	195025	35.71	-1
0	195589	35.81	-1
0	196153	35.91	-1
0	196726	36.01	-1
0	197290	36.11	-1
0	197854	36.21	-1
0	198418	36.31	-1
0	198982	36.41	-1
0	199546	36.51	-1
0	200110	36.61	-1
0	200674	36.71	-1
0	201238	36.81	-1
0	201802	36.91	-1
0	202375	37.01	-1
0	202939	37.11	-1
0	203503	37.21	-1
0	204067	37.31	-1
0	204631	37.41	-1
0	205195	37.51	-1
0	205759	37.61	-1
0	206323	37.71	-1
0	206887	37.81	-1
0	207451	37.91	-1
0	208024	38.01	-1
0	208588	38.11	-1
0	209152	38.21	-1
0	209716	38.31	-1
0	210280	38.41	-1
0	210844	38.51	-1
0	211408	38.61	-1
0	211972	38.71	-1
0	212536	38.81	-1
0	213100	38.91	-1
0	213673	39.01	-1
0	214237	39.11	-1
0	214801	39.21	-1
0	215365	39.31	-1
0	215929	39.41	-1
0	216493	39.51	-1
0	217057	39.61	-1
0	217621	39.71	-1
0	218185	39.81	-1
0	218749	39.91	-1
0	219322	40.01	-1
0	219886	40.11	-1
0	220450	40.21	-1
0	221014	40.31	-1
0	221578	40.41	-1
0	222142	40.51	-1
0	222706	40.61	-1
0	223270	40.71	-1
0	223834	40.81	-1
0	224398	40.91	-1
0	224971	41.01	-1
0	225535	41.11	-1
0	226099	41.21	-1
0	226663	41.31	-1
0	227227	41.41	-1
0	227791	41.51	-1
0	228355	41.61	-1
0	228919	41.71	-1
0	229483	41.81	-1
0	230047	41.91	-1
0	230620	42.01	-1
0	231184	42.11	-1
0	231748	42.21	-1
0	232312	42.31	-1
0	232876	42.41	-1
0	233440	42.51	-1
0	234004	42.61	-1
0	234661	42.71	-1
0	235224	42.81	-1
0	235787	42.91	-1
0	236359	43.01	-1
0	236922	43.11	-1
0	237485	43.21	-1
0	238048	43.31	-1
0	238611	43.41	-1
0	239174	43.51	-1
0	239737	43.61	-1
0	240300	43.71	-1
0	240863	43.81	-1
0	241426	43.91	-1
0	241998	44.01	-1
0	242561	44.11	-1
0	243124	44.21	-1
0	243687	44.31	-1
0	244250	44.41	-1
0	244813	44.51	-1
0	245376	44.61	-1
0	245939	44.71	-1
0	246502	44.81	-1
0	247065	44.91	-1
0	247637	45.01	-1
0	248200	45.11	-1
0	248763	45.21	-1
0	249326	45.31	-1
0	249889	45.41	-1
0	250452	45.51	-1
0	251015	45.61	-1
0	251578	45.71	-1
0	252141	45.81	-1
0	252704	45.91	-1
0	253276	46.01	-1
0	253839	46.11	-1
0	254402	46.21	-1
0	254965	46.31	-1
0	255528	46.41	-1
0	256091	46.51	-1
0	256654	46.61	-1
0	257217	46.71	-1
0	257780	46.81	-1
0	258343	46.91	-1
0	258915	47.01	-1
0	259478	47.11	-1
0	260041	47.21	-1
0	260604	47.31	-1
0	261167	47.41	-1
0	261730	47.51	-1
0	262293	47.61	-1
0	262856	47.71	-1
0	263419	47.81	-1
0	263982	47.91	-1
0	264554	48.01	-1
0	265117	48.11	-1
0	265680	48.21	-1
0	266243	48.31	-1
0	266806	48.41	-1
0	267476	48.51	-1
0	268038	48.61	-1
0	268600	48.71	-1
0	269162	48.81	-1
0	269724	48.91	-1
0	270295	49.01	-1
0	270857	49.11	-1
0	271419	49.21	-1
0	271981	49.31	-1
0	272543	49.41	-1
0	273105	49.51	-1
0	273667	49.61	-1
0	274229	49.71	-1
0	274791	49.81	-1
0	275353	49.91	-1
0	275924	50.01	-1
0	276486	50.11	-1
0	277048	50.21	-1
0	277610	50.31	-1
0	278172	50.41	-1
0	278734	50.51	-1
0	279296	50.61	-1
0	279858	50.71	-1
0	280420	50.81	-1
0	280982	50.91	-1
0	281553	51.01	-1
0	282115	51.11	-1
0	282677	51.21	-1
0	283239	51.31	-1
0	283801	51.41	-1
0	284363	51.51	-1
0	284925	51.61	-1
0	285487	51.71	-1
0	286049	51.81	-1
0	286611	51.91	-1
0	287182	52.01	-1
0	287744	52.11	-1
0	288306	52.21	-1
0	288868	52.31	-1
0	289430	52.41	-1
0	289992	52.51	-1
0	290554	52.61	-1
0	291116	52.71	-1
0	291678	52.81	-1
0	292240	52.91	-1
0	292811	53.01	-1
0	293373	53.11	-1
0	293935	53.21	-1
0	294497	53.31	-1
0	295059	53.41	-1
0	295621	53.51	-1
0	296183	53.61	-1
0	296745	53.71	-1
0	297400	53.81	-1
0	297961	53.91	-1
0	298531	54.01	-1
0	299092	54.11	-1
0	299653	54.21	-1
0	300214	54.31	-1
0	300775	54.41	-1
0	301336	54.51	-1
0	301897	54.61	-1
0	302458	54.71	-1
0	303019	54.81	-1
0	303580	54.91	-1
0	304150	55.01	-1
0	304711	55.11	-1
0	305272	55.21	-1
0	305833	55.31	-1
0	306394	55.41	-1
0	306955	55.51	-1
0	307516	55.61	-1
0	308077	55.71	-1
0	308638	55.81	-1
0	309199	55.91	-1
0	309769	56.01	-1
0	310330	56.11	-1
0	310891	56.21	-1
0	311452	56.31	-1
0	312013	56.41	-1
0	312574	56.51	-1
0	313135	56.61	-1
0	313696	56.71	-1
0	314257	56.81	-1
0	314818	56.91	-1
0	315388	57.01	-1
0	315949	57.11	-1
0	316510	57.21	-1
0	317071	57.31	-1
0	317632	57.41	-1
0	318193	57.51	-1
0	318754	57.61	-1
0	319315	57.71	-1
0	319876	57.81	-1
0	320437	57.91	-1
0	321007	58.01	-1
0	321568	58.11	-1
0	322129	58.21	-1
0	322690	58.31	-1
0	323251	58.41	-1
0	323812	58.51	-1
0	324466	58.61	-1
0	325026	58.71	-1
0	325586	58.81	-1
0	326146	58.91	-1
0	326715	59.01	-1
0	327275	59.11	-1
0	327835	59.21	-1
0	328395	59.31	-1
0	328955	59.41	-1
0	329515	59.51	-1
0	330075	59.61	-1
0	330635	59.71	-1
0	331195	59.81	-1
0	331755	59.91	-1
0	332324	60.01	-1
0	332884	60.11	-1
0	333444	60.21	-1
0	334004	60.31	-1
0	334564	60.41	-1
0	335124	60.51	-1
0	335684	60.61	-1
0	336244	60.71	-1
0	336804	60.81	-1
0	337364	60.91	-1
0	337933	61.01	-1
0	338493	61.11	-1
0	339053	61.21	-1
0	339613	61.31	-1
0	340173	61.41	-1
0	340733	61.51	-1
0	341293	61.61	-1
0	341853	61.71	-1
0	342413	61.81	-1
0	342973	61.91	-1
0	343542	62.01	-1
0	344102	62.11	-1
0	344662	62.21	-1
0	345222	62.31	-1
0	345782	62.41	-1
0	346342	62.51	-1
0	346902	62.61	-1
0	347462	62.71	-1
0	348022	62.81	-1
0	348582	62.91	-1
0	349151	63.01	-1
0	349711	63.11	-1
0	350271	63.21	-1
0	350924	63.31	-1
0	351483	63.41	-1
0	352042	63.51	-1
0	352601	63.61	-1
0	353160	63.71	-1
0	353719	63.81	-1
0	354278	63.91	-1
0	354846	64.01	-1
0	355405	64.11	-1
0	355964	64.21	-1
0	356523	64.31	-1
0	357082	64.41	-1
0	357641	64.51	-1
0	358200	64.61	-1
0	358759	64.71	-1
0	359318	64.81	-1
0	359877	64.91	-1
0	360445	65.01	-1
0	361004	65.11	-1
0	361563	65.21	-1
0	362122	65.31	-1
0	362681	65.41	-1
0	363240	65.51	-1
0	363799	65.61	-1
0	364358	65.71	-1
0	364917	65.81	-1
0	365476	65.91	-1
0	366044	66.01	-1
0	366603	66.11	-1
0	367162	66.21	-1
0	367721	66.31	-1
0	368280	66.41	-1
0	368839	66.51	-1
0	369398	66.61	-1
0	369957	66.71	-1
0	370516	66.81	-1
0	371075	66.91	-1
0	371643	67.01	-1
0	372202	67.11	-1
0	372761	67.21	-1
0	373320	67.31	-1
0	373879	67.41	-1
0	374438	67.51	-1
0	374997	67.61	-1
0	375556	67.71	-1
0	376208	67.81	-1
0	376766	67.91	-1
0	377333	68.01	-1
0	377891	68.11	-1
0	378449	68.21	-1
0	379007	68.31	-1
0	379565	68.41	-1
0	380123	68.51	-1
0	380681	68.61	-1
0	381239	68.71	-1
0	381797	68.81	-1
0	382355	68.91	-1
0	382922	69.01	-1
0	383480	69.11	-1
0	384038	69.21	-1
0	384596	69.31	-1
0	385154	69.41	-1
0	385712	69.51	-1
0	386270	69.61	-1
0	386828	69.71	-1
0	387386	69.81	-1
0	387944	69.91	-1
0	388511	70.01	-1
0	389069	70.11	-1
0	389627	70.21	-1
0	390185	70.31	-1
0	390743	70.41	-1
0	391301	70.51	-1
0	391859	70.61	-1
0	392417	70.71	-1
0	392975	70.81	-1
0	393533	70.91	-1
0	394100	71.01	-1
0	394658	71.11	-1
0	395216	71.21	-1
0	395774	71.31	-1
0	396332	71.41	-1
0	396890	71.51	-1
0	397448	71.61	-1
0	398006	71.71	-1
0	398564	71.81	-1
0	399122	71.91	-1
0	399689	72.01	-1
0	400991	72.11	-1
0	401548	72.21	-1
0	402105	72.31	-1
0	402662	72.41	-1
0	403219	72.51	-1
0	403776	72.61	-1
0	404333	72.71	-1
0	404890	72.81	-1
0	405447	72.91	-1
0	406013	73.01	-1
0	406570	73.11	-1
0	407127	73.21	-1
0	407684	73.31	-1
0	408241	73.41	-1
0	408798	73.51	-1
0	409355	73.61	-1
0	409912	73.71	-1
0	410469	73.81	-1
0	411026	73.91	-1
0	411592	74.01	-1
0	412149	74.11	-1
0	412706	74.21	-1
0	413263	74.31	-1
0	413820	74.41	-1
0	414377	74.51	-1
0	414934	74.61	-1
0	415491	74.71	-1
0	416048	74.81	-1
0	416605	74.91	-1
0	417171	75.01	-1
0	417728	75.11	-1
0	418285	75.21	-1
0	418842	75.31	-1
0	419399	75.41	-1
0	419956	75.51	-1
0	420513	75.61	-1
0	421070	75.71	-1
0	421627	75.81	-1
0	422184	75.91	-1
0	422750	76.01	-1
0	423307	76.11	-1
0	423864	76.21	-1
0	424421	76.31	-1
0	424978	76.41	-1
0	425535	76.51	-1
0	426092	76.61	-1
0	426649	76.71	-1
0	427206	76.81	-1
0	427763	76.91	-1
0	428329	77.01	-1
0	428886	77.11	-1
0	429443	77.21	-1
0	430000	77.31	-1
0	430557	77.41	-1
0	431114	77.51	-1
0	431671	77.61	-1
0	432228	77.71	-1
0	432785	77.81	-1
0	433342	77.91	-1
0	433908	78.01	-1
0	434465	78.11	-1
0	435022	78.21	-1
0	435579	78.31	-1
0	436136	78.41	-1
0	436693	78.51	-1
0	437250	78.61	-1
0	437807	78.71	-1
0	438364	78.81	-1
0	438921	78.91	-1
0	439487	79.01	-1
0	440044	79.11	-1
0	440601	79.21	-1
0	441158	79.31	-1
0	441715	79.41	-1
0	442272	79.51	-1
0	442829	79.61	-1
0	443386	79.71	-1
0	443943	79.81	-1
0	444500	79.91	-1
0	445066	80.01	-1
0	445623	80.11	-1
0	446180	80.21	-1
0	446737	80.31	-1
0	447294	80.41	-1
0	447851	80.51	-1
0	448408	80.61	-1
0	448965	80.71	-1
0	449522	80.81	-1
0	450079	80.91	-1
0	450645	81.01	-1
0	451202	81.11	-1
0	451759	81.21	-1
0	452316	81.31	-1
0	452873	81.41	-1
0	453430	81.51	-1
0	453987	81.61	-1
0	454544	81.71	-1
0	455101	81.81	-1
0	455658	81.91	-1
0	456224	82.01	-1
0	456781	82.11	-1
0	457338	82.21	-1
0	457895	82.31	-1
0	458452	82.41	-1
0	459009	82.51	-1
0	459566	82.61	-1
0	460123	82.71	-1
0	460680	82.81	-1
0	461237	82.91	-1
0	461803	83.01	-1
0	462360	83.11	-1
0	462917	83.21	-1
0	463474	83.31	-1
0	464031	83.41	-1
0	464588	83.51	-1
0	465145	83.61	-1
0	465702	83.71	-1
0	466259	83.81	-1
0	466816	83.91	-1
0	467382	84.01	-1
0	467939	84.11	-1
0	468496	84.21	-1
0	469053	84.31	-1
0	469610	84.41	-1
0	470167	84.51	-1
0	470724	84.61	-1
0	471281	84.71	-1
0	471838	84.81	-1
0	472395	84.91	-1
0	472961	85.01	-1
0	473518	85.11	-1
0	474075	85.21	-1
0	474632	85.31	-1
0	475189	85.41	-1
0	475746	85.51	-1
0	476303	85.61	-1
0	476860	85.71	-1
0	477417	85.81	-1
0	477974	85.91	-1
0	478540	86.01	-1
0	479097	86.11	-1
0	479654	86.21	-1
0	480211	86.31	-1
0	480768	86.41	-1
0	481325	86.51	-1
0	481882	86.61	-1
0	482439	86.71	-1
0	482996	86.81	-1
0	483553	86.91	-1
0	484119	87.01	-1
0	484676	87.11	-1
0	485233	87.21	-1
0	485790	87.31	-1
0	486347	87.41	-1
0	486904	87.51	-1
0	487461	87.61	-1
0	488018	87.71	-1
0	488575	87.81	-1
0	489132	87.91	-1
0	489698	88.01	-1
0	490255	88.11	-1
0	490812	88.21	-1
0	491369	88.31	-1
0	491926	88.41	-1
0	492483	88.51	-1
0	493040	88.61	-1
0	493597	88.71	-1
0	494154	88.81	-1
0	494711	88.91	-1
0	495277	89.01	-1
0	495834	89.11	-1
0	496391	89.21	-1
0	496948	89.31	-1
0	497505	89.41	-1
0	498062	89.51	-1
0	498619	89.61	-1
0	499176	89.71	-1
0	499733	89.81	-1
0	500290	89.91	-1
0	500856	90.01	-1
0	501413	90.11	-1
0	501970	90.21	-1
0	502527	90.31	-1
0	503084	90.41	-1
0	503641	90.51	-1
0	504198	90.61	-1
0	504755	90.71	-1
0	505312	90.81	-1
0	505869	90.91	-1
0	506435	91.01	-1
0	506992	91.11	-1
0	507549	91.21	-1
0	508106	91.31	-1
0	508663	91.41	-1
0	509220	91.51	-1
0	509777	91.61	-1
0	510334	91.71	-1
0	510891	91.81	-1
0	511448	91.91	-1
0	512014	92.01	-1
0	512571	92.11	-1
0	513128	92.21	-1
0	513685	92.31	-1
0	514242	92.41	-1
0	514799	92.51	-1
0	515356	92.61	-1
0	515913	92.71	-1
0	516470	92.81	-1
0	517027	92.91	-1
0	517593	93.01	-1
0	518150	93.11	-1
0	518707	93.21	-1
0	519264	93.31	-1
0	519821	93.41	-1
0	520378	93.51	-1
0	520935	93.61	-1
0	521492	93.71	-1
0	522049	93.81	-1
0	522606	93.91	-1
0	523172	94.01	-1
0	523729	94.11	-1
0	524286	94.21	-1
0	524843	94.31	-1
0	525400	94.41	-1
0	525957	94.51	-1
0	526514	94.61	-1
0	527071	94.71	-1
0	527628	94.81	-1
0	528185	94.91	-1
0	528751	95.01	-1
0	529308	95.11	-1
0	529865	95.21	-1
0	530422	95.31	-1
0	530979	95.41	-1
0	531536	95.51	-1
0	532093	95.61	-1
0	532650	95.71	-1
0	533207	95.81	-1
0	533764	95.91	-1
0	534330	96.01	-1
0	534887	96.11	-1
0	535444	96.21	-1
0	536001	96.31	-1
0	536558	96.41	-1
0	537115	96.51	-1
0	537672	96.61	-1
0	538229	96.71	-1
0	538786	96.81	-1
0	539343	96.91	-1
0	539909	97.01	-1
0	540466	97.11	-1
0	541023	97.21	-1
0	541580	97.31	-1
0	542137	97.41	-1
0	542694	97.51	-1
0	543251	97.61	-1
0	543808	97.71	-1
0	544365	97.81	-1
0	544922	97.91	-1
0	545488	98.01	-1
0	546045	98.11	-1
0	546602	98.21	-1
0	547159	98.31	-1
0	547716	98.41	-1
0	548273	98.51	-1
0	548830	98.61	-1
0	549387	98.71	-1
0	549944	98.81	-1
0	550501	98.91	-1
0	551067	99.01	-1
0	551624	99.11	-1
0	552181	99.21	-1
0	552738	99.31	-1
0	553295	99.41	-1
0	553852	99.51	-1
0	554409	99.61	-1
0	554966	99.71	-1
0	555523	99.81	-1
0	556080	99.91	-1
1	113	1.11	0
1	670	1.21	0
1	1227	1.31	0
1	1784	1.41	0
1	2341	1.51	0
1	2898	1.61	0
1	3455	1.71	0
1	4012	1.81	0
1	4569	1.91	0
1	5135	2.01	0
1	5692	2.11	0
1	6249	2.21	0
1	6806	2.31	0
1	7363	2.41	0
1	7920	2.51	0
1	8477	2.61	0
1	9034	2.71	0
1	9591	2.81	0
1	10148	2.91	0
1	10714	3.01	0
1	11271	3.11	0
1	11828	3.21	0
1	12385	3.31	0
1	12942	3.41	0
1	13499	3.51	0
1	14056	3.61	0
1	14613	3.71	0
1	15170	3.81	0
1	15727	3.91	0
1	16293	4.01	0
1	16850	4.11	0
1	17407	4.21	0
1	17964	4.31	0
1	18521	4.41	0
1	19078	4.51	0
1	19635	4.61	0
1	20192	4.71	0
1	20749	4.81	0
1	21306	4.91	0
1	21872	5.01	0
1	22429	5.11	0
1	22986	5.21	0
1	23543	5.31	0
1	24100	5.41	0
1	24657	5.51	0
1	25214	5.61	0
1	25771	5.71	0
1	26328	5.81	0
1	26885	5.91	0
1	27451	6.01	0
1	28008	6.11	0
1	28565	6.21	0
1	29122	6.31	0
1	29679	6.41	0
1	30236	6.51	0
1	30793	6.61	0
1	31350	6.71	0
1	31907	6.81	0
1	32464	6.91	0
1	33030	7.01	0
1	33587	7.11	0
1	34144	7.21	0
1	34701	7.31	0
1	35258	7.41	0
1	35815	7.51	0
1	36372	7.61	0
1	36929	7.71	0
1	37486	7.81	0
1	38043	7.91	0
1	38609	8.01	0
1	39166	8.11	0
1	39723	8.21	0
1	40280	8.31	0
1	40837	8.41	0
1	41394	8.51	0
1	41951	8.61	0
1	42508	8.71	0
1	43065	8.81	0
1	43622	8.91	0
1	44188	9.01	0
1	44745	9.11	0
1	45302	9.21	0
1	45859	9.31	0
1	46416	9.41	0
1	46973	9.51	0
1	47530	9.61	0
1	48087	9.71	0
1	48644	9.81	0
1	49201	9.91	0
1	49852	10.01	0
1	50416	10.11	0
1	50980	10.21	0
1	51544	10.31	0
1	52108	10.41	0
1	52672	10.51	0
1	53236	10.61	0
1	53800	10.71	0
1	54364	10.81	0
1	54928	10.91	0
1	55501	11.01	0
1	56065	11.11	0
1	56629	11.21	0
1	57193	11.31	0
1	57757	11.41	0
1	58321	11.51	0
1	58885	11.61	0
1	59449	11.71	0
1	60013	11.81	0
1	60577	11.91	0
1	61150	12.01	0
1	61714	12.11	0
1	62278	12.21	0
1	62842	12.31	0
1	63406	12.41	0
1	63970	12.51	0
1	64534	12.61	0
1	65098	12.71	0
1	65662	12.81	0
1	66226	12.91	0
1	66799	13.01	0
1	67363	13.11	0
1	67927	13.21	0
1	68491	13.31	0
1	69055	13.41	0
1	69619	13.51	0
1	70183	13.61	0
1	70747	13.71	0
1	71311	13.81	0
1	71875	13.91	0
1	72448	14.01	0
1	73012	14.11	0
1	73576	14.21	0
1	74140	14.31	0
1	74704	14.41	0
1	75268	14.51	0
1	75832	14.61	0
1	76396	14.71	0
1	76960	14.81	0
1	77524	14.91	0
1	78097	15.01	0
1	78661	15.11	0
1	79225	15.21	0
1	79789	15.31	0
1	80353	15.41	0
1	80917	15.51	0
1	81481	15.61	0
1	82045	15.71	0
1	82609	15.81	0
1	83173	15.91	0
1	83746	16.01	0
1	84310	16.11	0
1	84874	16.21	0
1	85438	16.31	0
1	86002	16.41	0
1	86566	16.51	0
1	87130	16.61	0
1	87694	16.71	0
1	88258	16.81	0
1	88822	16.91	0
1	89395	17.01	0
1	89959	17.11	0
1	90523	17.21	0
1	91087	17.31	0
1	91651	17.41	0
1	92215	17.51	0
1	92779	17.61	0
1	93343	17.71	0
1	93907	17.81	0
1	94471	17.91	0
1	95044	18.01	0
1	95608	18.11	0
1	96172	18.21	0
1	96736	18.31	0
1	97300	18.41	0
1	97864	18.51	0
1	98428	18.61	0
1	98992	18.71	0
1	99556	18.81	0
1	100120	18.91	0
1	100693	19.01	0
1	101257	19.11	0
1	101821	19.21	0
1	102385	19.31	0
1	102949	19.41	0
1	103513	19.51	0
1	104077	19.61	0
1	104641	19.71	0
1	105205	19.81	0
1	105769	19.91	0
1	106342	20.01	0
1	106906	20.11	0
1	107470	20.21	0
1	108034	20.31	0
1	108598	20.41	0
1	109162	20.51	0
1	109726	20.61	0
1	110290	20.71	0
1	110854	20.81	0
1	111418	20.91	0
1	111991	21.01	0
1	112555	21.11	0
1	113119	21.21	0
1	113683	21.31	0
1	114247	21.41	0
1	114811	21.51	0
1	115375	21.61	0
1	115939	21.71	0
1	116503	21.81	0
1	117067	21.91	0
1	117640	22.01	0
1	118204	22.11	0
1	118768	22.21	0
1	119332	22.31	0
1	119896	22.41	0
1	120460	22.51	0
1	121024	22.61	0
1	121588	22.71	0
1	122152	22.81	0
1	122716	22.91	0
1	123289	23.01	0
1	123853	23.11	0
1	124417	23.21	0
1	124981	23.31	0
1	125545	23.41	0
1	126109	23.51	0
1	126673	23.61	0
1	127237	23.71	0
1	127801	23.81	0
1	128365	23.91	0
1	128938	24.01	0
1	129502	24.11	0
1	130066	24.21	0
1	130630	24.31	0
1	131194	24.41	0
1	131758	24.51	0
1	132322	24.61	0
1	132886	24.71	0
1	133450	24.81	0
1	134014	24.91	0
1	134587	25.01	0
1	135151	25.11	0
1	135715	25.21	0
1	136279	25.31	0
1	136843	25.41	0
1	137407	25.51	0
1	137971	25.61	0
1	138535	25.71	0
1	139099	25.81	0
1	139663	25.91	0
1	140236	26.01	0
1	140800	26.11	0
1	141364	26.21	0
1	141928	26.31	0
1	142492	26.41	0
1	143056	26.51	0
1	143620	26.61	0
1	144184	26.71	0
1	144748	26.81	0
1	145312	26.91	0
1	145885	27.01	0
1	146449	27.11	0
1	147013	27.21	0
1	147577	27.31	0
1	148141	27.41	0
1	148705	27.51	0
1	149269	27.61	0
1	149833	27.71	0
1	150397	27.81	0
1	150961	27.91	0
1	151534	28.01	0
1	152098	28.11	0
1	152662	28.21	0
1	153226	28.31	0
1	153790	28.41	0
1	154354	28.51	0
1	154918	28.61	0
1	155482	28.71	0
1	156046	28.81	0
1	156610	28.91	0
1	157183	29.01	0
1	157747	29.11	0
1	158311	29.21	0
1	158875	29.31	0
1	159439	29.41	0
1	160003	29.51	0
1	160567	29.61	0
1	161131	29.71	0
1	161695	29.81	0
1	162259	29.91	0
1	162832	30.01	0
1	163396	30.11	0
1	163960	30.21	0
1	164524	30.31	0
1	165088	30.41	0
1	165652	30.51	0
1	166216	30.61	0
1	166780	30.71	0
1	167344	30.81	0
1	167908	30.91	0
1	168481	31.01	0
1	169045	31.11	0
1	169609	31.21	0
1	170173	31.31	0
1	170737	31.41	0
1	171301	31.51	0
1	171865	31.61	0
1	172429	31.71	0
1	172993	31.81	0
1	173557	31.91	0
1	174130	32.01	0
1	174694	32.11	0
1	175258	32.21	0
1	175822	32.31	0
1	176386	32.41	0
1	176950	32.51	0
1	177514	32.61	0
1	178078	32.71	0
1	178642	32.81	0
1	179206	32.91	0
1	179779	33.01	0
1	180343	33.11	0
1	180907	33.21	0
1	181471	33.31	0
1	182035	33.41	0
1	182599	33.51	0
1	183163	33.61	0
1	183727	33.71	0
1	184291	33.81	0
1	184855	33.91	0
1	185428	34.01	0
1	185992	34.11	0
1	186556	34.21	0
1	187120	34.31	0
1	187684	34.41	0
1	188248	34.51	0
1	188812	34.61	0
1	189376	34.71	0
1	189940	34.81	0
1	190504	34.91	0
1	191077	35.01	0
1	191641	35.11	0
1	192205	35.21	0
1	192769	35.31	0
1	193333	35.41	0
1	193897	35.51	0
1	194461	35.61	0
1	195025	35.71	0
1	195589	35.81	0
1	196153	35.91	0
1	196726	36.01	0
1	197290	36.11	0
1	197854	36.21	0
1	198418	36.31	0
1	198982	36.41	0
1	199546	36.51	0
1	200110	36.61	0
1	200674	36.71	0
1	201238	36.81	0
1	201802	36.91	0
1	202375	37.01	0
1	202939	37.11	0
1	203503	37.21	0
1	204067	37.31	0
1	204631	37.41	0
1	205195	37.51	0
1	205759	37.61	0
1	206323	37.71	0
1	206887	37.81	0
1	207451	37.91	0
1	208024	38.01	0
1	208588	38.11	0
1	209152	38.21	0
1	209716	38.31	0
1	210280	38.41	0
1	210844	38.51	0
1	211408	38.61	0
1	211972	38.71	0
1	212536	38.81	0
1	213100	38.91	0
1	213673	39.01	0
1	214237	39.11	0
1	214801	39.21	0
1	215365	39.31	0
1	215929	39.41	0
1	216493	39.51	0
1	217057	39.61	0
1	217621	39.71	0
1	218185	39.81	0
1	218749	39.91	0
1	219322	40.01	0
1	219886	40.11	0
1	220450	40.21	0
1	221014	40.31	0
1	221578	40.41	0
1	222142	40.51	0
1	222706	40.61	0
1	223270	40.71	0
1	223834	40.81	0
1	224398	40.91	0
1	224971	41.01	0
1	225535	41.11	0
1	226099	41.21	0
1	226663	41.31	0
1	227227	41.41	0
1	227791	41.51	0
1	228355	41.61	0
1	228919	41.71	0
1	229483	41.81	0
1	230047	41.91	0
1	230620	42.01	0
1	231184	42.11	0
1	231748	42.21	0
1	232312	42.31	0
1	232876	42.41	0
1	233440	42.51	0
1	234004	42.61	0
1	234661	42.71	0
1	235224	42.81	0
1	235787	42.91	0
1	236359	43.01	0
1	236922	43.11	0
1	237485	43.21	0
1	238048	43.31	0
1	238611	43.41	0
1	239174	43.51	0
1	239737	43.61	0
1	240300	43.71	0
1	240863	43.81	0
1	241426	43.91	0
1	241998	44.01	0
1	242561	44.11	0
1	243124	44.21	0
1	243687	44.31	0
1	244250	44.41	0
1	244813	44.51	0
1	245376	44.61	0
1	245939	44.71	0
1	246502	44.81	0
1	247065	44.91	0
1	247637	45.01	0
1	248200	45.11	0
1	248763	45.21	0
1	249326	45.31	0
1	249889	45.41	0
1	250452	45.51	0
1	251015	45.61	0
1	251578	45.71	0
1	252141	45.81	0
1	252704	45.91	0
1	253276	46.01	0
1	253839	46.11	0
1	254402	46.21	0
1	254965	46.31	0
1	255528	46.41	0
1	256091	46.51	0
1	256654	46.61	0
1	257217	46.71	0
1	257780	46.81	0
1	258343	46.91	0
1	258915	47.01	0
1	259478	47.11	0
1	260041	47.21	0
1	260604	47.31	0
1	261167	47.41	0
1	261730	47.51	0
1	262293	47.61	0
1	262856	47.71	0
1	263419	47.81	0
1	263982	47.91	0
1	264554	48.01	0
1	265117	48.11	0
1	265680	48.21	0
1	266243	48.31	0
1	266806	48.41	0
1	267476	48.51	0
1	268038	48.61	0
1	268600	48.71	0
1	269162	48.81	0
1	269724	48.91	0
1	270295	49.01	0
1	270857	49.11	0
1	271419	49.21	0
1	271981	49.31	0
1	272543	49.41	0
1	273105	49.51	0
1	273667	49.61	0
1	274229	49.71	0
1	274791	49.81	0
1	275353	49.91	0
1	275924	50.01	0
1	276486	50.11	0
1	277048	50.21	0
1	277610	50.31	0
1	278172	50.41	0
1	278734	50.51	0
1	279296	50.61	0
1	279858	50.71	0
1	280420	50.81	0
1	280982	50.91	0
1	281553	51.01	0
1	282115	51.11	0
1	282677	51.21	0
1	283239	51.31	0
1	283801	51.41	0
1	284363	51.51	0
1	284925	51.61	0
1	285487	51.71	0
1	286049	51.81	0
1	286611	51.91	0
1	287182	52.01	0
1	287744	52.11	0
1	288306	52.21	0
1	288868	52.31	0
1	289430	52.41	0
1	289992	52.51	0
1	290554	52.61	0
1	291116	52.71	0
1	291678	52.81	0
1	292240	52.91	0
1	292811	53.01	0
1	293373	53.11	0
1	293935	53.21	0
1	294497	53.31	0
1	295059	53.41	0
1	295621	53.51	0
1	296183	53.61	0
1	296745	53.71	0
1	297400	53.81	0
1	297961	53.91	0
1	298531	54.01	0
1	299092	54.11	0
1	299653	54.21	0
1	300214	54.31	0
1	300775	54.41	0
1	301336	54.51	0
1	301897	54.61	0
1	302458	54.71	0
1	303019	54.81	0
1	303580	54.91	0
1	304150	55.01	0
1	304711	55.11	0
1	305272	55.21	0
1	305833	55.31	0
1	306394	55.41	0
1	306955	55.51	0
1	307516	55.61	0
1	308077	55.71	0
1	308638	55.81	0
1	309199	55.91	0
1	309769	56.01	0
1	310330	56.11	0
1	310891	56.21	0
1	311452	56.31	0
1	312013	56.41	0
1	312574	56.51	0
1	313135	56.61	0
1	313696	56.71	0
1	314257	56.81	0
1	314818	56.91	0
1	315388	57.01	0
1	315949	57.11	0
1	316510	57.21	0
1	317071	57.31	0
1	317632	57.41	0
1	318193	57.51	0
1	318754	57.61	0
1	319315	57.71	0
1	319876	57.81	0
1	320437	57.91	0
1	321007	58.01	0
1	321568	58.11	0
1	322129	58.21	0
1	322690	58.31	0
1	323251	58.41	0
1	323812	58.51	0
1	324466	58.61	0
1	325026	58.71	0
1	325586	58.81	0
1	326146	58.91	0
1	326715	59.01	0
1	327275	59.11	0
1	327835	59.21	0
1	328395	59.31	0
1	328955	59.41	0
1	329515	59.51	0
1	330075	59.61	0
1	330635	59.71	0
1	331195	59.81	0
1	331755	59.91	0
1	332324	60.01	0
1	332884	60.11	0
1	333444	60.21	0
1	334004	60.31	0
1	334564	60.41	0
1	335124	60.51	0
1	335684	60.61	0
1	336244	60.71	0
1	336804	60.81	0
1	337364	60.91	0
1	337933	61.01	0
1	338493	61.11	0
1	339053	61.21	0
1	339613	61.31	0
1	340173	61.41	0
1	340733	61.51	0
1	341293	61.61	0
1	341853	61.71	0
1	342413	61.81	0
1	342973	61.91	0
1	343542	62.01	0
1	344102	62.11	0
1	344662	62.21	0
1	345222	62.31	0
1	345782	62.41	0
1	346342	62.51	0
1	346902	62.61	0
1	347462	62.71	0
1	348022	62.81	0
1	348582	62.91	0
1	349151	63.01	0
1	349711	63.11	0
1	350271	63.21	0
1	350924	63.31	0
1	351483	63.41	0
1	352042	63.51	0
1	352601	63.61	0
1	353160	63.71	0
1	353719	63.81	0
1	354278	63.91	0
1	354846	64.01	0
1	355405	64.11	0
1	355964	64.21	0
1	356523	64.31	0
1	357082	64.41	0
1	357641	64.51	0
1	358200	64.61	0
1	358759	64.71	0
1	359318	64.81	0
1	359877	64.91	0
1	360445	65.01	0
1	361004	65.11	0
1	361563	65.21	0
1	362122	65.31	0
1	362681	65.41	0
1	363240	65.51	0
1	363799	65.61	0
1	364358	65.71	0
1	364917	65.81	0
1	365476	65.91	0
1	366044	66.01	0
1	366603	66.11	0
1	367162	66.21	0
1	367721	66.31	0
1	368280	66.41	0
1	368839	66.51	0
1	369398	66.61	0
1	369957	66.71	0
1	370516	66.81	0
1	371075	66.91	0
1	371643	67.01	0
1	372202	67.11	0
1	372761	67.21	0
1	373320	67.31	0
1	373879	67.41	0
1	374438	67.51	0
1	374997	67.61	0
1	375556	67.71	0
1	376208	67.81	0
1	376766	67.91	0
1	377333	68.01	0
1	377891	68.11	0
1	378449	68.21	0
1	379007	68.31	0
1	379565	68.41	0
1	380123	68.51	0
1	380681	68.61	0
1	381239	68.71	0
1	381797	68.81	0
1	382355	68.91	0
1	382922	69.01	0
1	383480	69.11	0
1	384038	69.21	0
1	384596	69.31	0
1	385154	69.41	0
1	385712	69.51	0
1	386270	69.61	0
1	386828	69.71	0
1	387386	69.81	0
1	387944	69.91	0
1	388511	70.01	0
1	389069	70.11	0
1	389627	70.21	0
1	390185	70.31	0
1	390743	70.41	0
1	391301	70.51	0
1	391859	70.61	0
1	392417	70.71	0
1	392975	70.81	0
1	393533	70.91	0
1	394100	71.01	0
1	394658	71.11	0
1	395216	71.21	0
1	395774	71.31	0
1	396332	71.41	0
1	396890	71.51	0
1	397448	71.61	0
1	398006	71.71	0
1	398564	71.81	0
1	399122	71.91	0
1	399689	72.01	0
1	400991	72.11	0
1	401548	72.21	0
1	402105	72.31	0
1	402662	72.41	0
1	403219	72.51	0
1	403776	72.61	0
1	404333	72.71	0
1	404890	72.81	0
1	405447	72.91	0
1	406013	73.01	0
1	406570	73.11	0
1	407127	73.21	0
1	407684	73.31	0
1	408241	73.41	0
1	408798	73.51	0
1	409355	73.61	0
1	409912	73.71	0
1	410469	73.81	0
1	411026	73.91	0
1	411592	74.01	0
1	412149	74.11	0
1	412706	74.21	0
1	413263	74.31	0
1	413820	74.41	0
1	414377	74.51	0
1	414934	74.61	0
1	415491	74.71	0
1	416048	74.81	0
1	416605	74.91	0
1	417171	75.01	0
1	417728	75.11	0
1	418285	75.21	0
1	418842	75.31	0
1	419399	75.41	0
1	419956	75.51	0
1	420513	75.61	0
1	421070	75.71	0
1	421627	75.81	0
1	422184	75.91	0
1	422750	76.01	0
1	423307	76.11	0
1	423864	76.21	0
1	424421	76.31	0
1	424978	76.41	0
1	425535	76.51	0
1	426092	76.61	0
1	426649	76.71	0
1	427206	76.81	0
1	427763	76.91	0
1	428329	77.01	0
1	428886	77.11	0
1	429443	77.21	0
1	430000	77.31	0
1	430557	77.41	0
1	431114	77.51	0
1	431671	77.61	0
1	432228	77.71	0
1	432785	77.81	0
1	433342	77.91	0
1	433908	78.01	0
1	434465	78.11	0
1	435022	78.21	0
1	435579	78.31	0
1	436136	78.41	0
1	436693	78.51	0
1	437250	78.61	0
1	437807	78.71	0
1	438364	78.81	0
1	438921	78.91	0
1	439487	79.01	0
1	440044	79.11	0
1	440601	79.21	0
1	441158	79.31	0
1	441715	79.41	0
1	442272	79.51	0
1	442829	79.61	0
1	443386	79.71	0
1	443943	79.81	0
1	444500	79.91	0
1	445066	80.01	0
1	445623	80.11	0
1	446180	80.21	0
1	446737	80.31	0
1	447294	80.41	0
1	447851	80.51	0
1	448408	80.61	0
1	448965	80.71	0
1	449522	80.81	0
1	450079	80.91	0
1	450645	81.01	0
1	451202	81.11	0
1	451759	81.21	0
1	452316	81.31	0
1	452873	81.41	0
1	453430	81.51	0
1	453987	81.61	0
1	454544	81.71	0
1	455101	81.81	0
1	455658	81.91	0
1	456224	82.01	0
1	456781	82.11	0
1	457338	82.21	0
1	457895	82.31	0
1	458452	82.41	0
1	459009	82.51	0
1	459566	82.61	0
1	460123	82.71	0
1	460680	82.81	0
1	461237	82.91	0
1	461803	83.01	0
1	462360	83.11	0
1	462917	83.21	0
1	463474	83.31	0
1	464031	83.41	0
1	464588	83.51	0
1	465145	83.61	0
1	465702	83.71	0
1	466259	83.81	0
1	466816	83.91	0
1	467382	84.01	0
1	467939	84.11	0
1	468496	84.21	0
1	469053	84.31	0
1	469610	84.41	0
1	470167	84.51	0
1	470724	84.61	0
1	471281	84.71	0
1	471838	84.81	0
1	472395	84.91	0
1	472961	85.01	0
1	473518	85.11	0
1	474075	85.21	0
1	474632	85.31	0
1	475189	85.41	0
1	475746	85.51	0
1	476303	85.61	0
1	476860	85.71	0
1	477417	85.81	0
1	477974	85.91	0
1	478540	86.01	0
1	479097	86.11	0
1	479654	86.21	0
1	480211	86.31	0
1	480768	86.41	0
1	481325	86.51	0
1	481882	86.61	0
1	482439	86.71	0
1	482996	86.81	0
1	483553	86.91	0
1	484119	87.01	0
1	484676	87.11	0
1	485233	87.21	0
1	485790	87.31	0
1	486347	87.41	0
1	486904	87.51	0
1	487461	87.61	0
1	488018	87.71	0
1	488575	87.81	0
1	489132	87.91	0
1	489698	88.01	0
1	490255	88.11	0
1	490812	88.21	0
1	491369	88.31	0
1	491926	88.41	0
1	492483	88.51	0
1	493040	88.61	0
1	493597	88.71	0
1	494154	88.81	0
1	494711	88.91	0
1	495277	89.01	0
1	495834	89.11	0
1	496391	89.21	0
1	496948	89.31	0
1	497505	89.41	0
1	498062	89.51	0
1	498619	89.61	0
1	499176	89.71	0
1	499733	89.81	0
1	500290	89.91	0
1	500856	90.01	0
1	501413	90.11	0
1	501970	90.21	0
1	502527	90.31	0
1	503084	90.41	0
1	503641	90.51	0
1	504198	90.61	0
1	504755	90.71	0
1	505312	90.81	0
1	505869	90.91	0
1	506435	91.01	0
1	506992	91.11	0
1	507549	91.21	0
1	508106	91.31	0
1	508663	91.41	0
1	509220	91.51	0
1	509777	91.61	0
1	510334	91.71	0
1	510891	91.81	0
1	511448	91.91	0
1	512014	92.01	0
1	512571	92.11	0
1	513128	92.21	0
1	513685	92.31	0
1	514242	92.41	0
1	514799	92.51	0
1	515356	92.61	0
1	515913	92.71	0
1	516470	92.81	0
1	517027	92.91	0
1	517593	93.01	0
1	518150	93.11	0
1	518707	93.21	0
1	519264	93.31	0
1	519821	93.41	0
1	520378	93.51	0
1	520935	93.61	0
1	521492	93.71	0
1	522049	93.81	0
1	522606	93.91	0
1	523172	94.01	0
1	523729	94.11	0
1	524286	94.21	0
1	524843	94.31	0
1	525400	94.41	0
1	525957	94.51	0
1	526514	94.61	0
1	527071	94.71	0
1	527628	94.81	0
1	528185	94.91	0
1	528751	95.01	0
1	529308	95.11	0
1	529865	95.21	0
1	530422	95.31	0
1	530979	95.41	0
1	531536	95.51	0
1	532093	95.61	0
1	532650	95.71	0
1	533207	95.81	0
1	533764	95.91	0
1	534330	96.01	0
1	534887	96.11	0
1	535444	96.21	0
1	536001	96.31	0
1	536558	96.41	0
1	537115	96.51	0
1	537672	96.61	0
1	538229	96.71	0
1	538786	96.81	0
1	539343	96.91	0
1	539909	97.01	0
1	540466	97.11	0
1	541023	97.21	0
1	541580	97.31	0
1	542137	97.41	0
1	542694	97.51	0
1	543251	97.61	0
1	543808	97.71	0
1	544365	97.81	0
1	544922	97.91	0
1	545488	98.01	0
1	546045	98.11	0
1	546602	98.21	0
1	547159	98.31	0
1	547716	98.41	0
1	548273	98.51	0
1	548830	98.61	0
1	549387	98.71	0
1	549944	98.81	0
1	550501	98.91	0
1	551067	99.01	0
1	551624	99.11	0
1	552181	99.21	0
1	552738	99.31	0
1	553295	99.41	0
1	553852	99.51	0
1	554409	99.61	0
1	554966	99.71	0
1	555523	99.81	0
1	556080	99.91	0
2	113	1.11	0
2	670	1.21	0
2	1227	1.31	0
2	1784	1.41	0
2	2341	1.51	0
2	2898	1.61	0
2	3455	1.71	0
2	4012	1.81	0
2	4569	1.91	0
2	5135	2.01	0
2	5692	2.11	0
2	6249	2.21	0
2	6806	2.31	0
2	7363	2.41	0
2	7920	2.51	0
2	8477	2.61	0
2	9034	2.71	0
2	9591	2.81	0
2	10148	2.91	0
2	10714	3.01	0
2	11271	3.11	0
2	11828	3.21	0
2	12385	3.31	0
2	12942	3.41	0
2	13499	3.51	0
2	14056	3.61	0
2	14613	3.71	0
2	15170	3.81	0
2	15727	3.91	0
2	16293	4.01	0
2	16850	4.11	0
2	17407	4.21	0
2	17964	4.31	0
2	18521	4.41	0
2	19078	4.51	0
2	19635	4.61	0
2	20192	4.71	0
2	20749	4.81	0
2	21306	4.91	0
2	21872	5.01	0
2	22429	5.11	0
2	22986	5.21	0
2	23543	5.31	0
2	24100	5.41	0
2	24657	5.51	0
2	25214	5.61	0
2	25771	5.71	0
2	26328	5.81	0
2	26885	5.91	0
2	27451	6.01	0
2	28008	6.11	0
2	28565	6.21	0
2	29122	6.31	0
2	29679	6.41	0
2	30236	6.51	0
2	30793	6.61	0
2	31350	6.71	0
2	31907	6.81	0
2	32464	6.91	0
2	33030	7.01	0
2	33587	7.11	0
2	34144	7.21	0
2	34701	7.31	0
2	35258	7.41	0
2	35815	7.51	0
2	36372	7.61	0
2	36929	7.71	0
2	37486	7.81	0
2	38043	7.91	0
2	38609	8.01	0
2	39166	8.11	0
2	39723	8.21	0
2	40280	8.31	0
2	40837	8.41	0
2	41394	8.51	0
2	41951	8.61	0
2	42508	8.71	0
2	43065	8.81	0
2	43622	8.91	0
2	44188	9.01	0
2	44745	9.11	0
2	45302	9.21	0
2	45859	9.31	0
2	46416	9.41	0
2	46973	9.51	0
2	47530	9.61	0
2	48087	9.71	0
2	48644	9.81	0
2	49201	9.91	0
2	49852	10.01	0
2	50416	10.11	0
2	50980	10.21	0
2	51544	10.31	0
2	52108	10.41	0
2	52672	10.51	0
2	53236	10.61	0
2	53800	10.71	0
2	54364	10.81	0
2	54928	10.91	0
2	55501	11.01	0
2	56065	11.11	0
2	56629	11.21	0
2	57193	11.31	0
2	57757	11.41	0
2	58321	11.51	0
2	58885	11.61	0
2	59449	11.71	0
2	60013	11.81	0
2	60577	11.91	0
2	61150	12.01	0
2	61714	12.11	0
2	62278	12.21	0
2	62842	12.31	0
2	63406	12.41	0
2	63970	12.51	0
2	64534	12.61	0
2	65098	12.71	0
2	65662	12.81	0
2	66226	12.91	0
2	66799	13.01	0
2	67363	13.11	0
2	67927	13.21	0
2	68491	13.31	0
2	69055	13.41	0
2	69619	13.51	0
2	70183	13.61	0
2	70747	13.71	0
2	71311	13.81	0
2	71875	13.91	0
2	72448	14.01	0
2	73012	14.11	0
2	73576	14.21	0
2	74140	14.31	0
2	74704	14.41	0
2	75268	14.51	0
2	75832	14.61	0
2	76396	14.71	0
2	76960	14.81	0
2	77524	14.91	0
2	78097	15.01	0
2	78661	15.11	0
2	79225	15.21	0
2	79789	15.31	0
2	80353	15.41	0
2	80917	15.51	0
2	81481	15.61	0
2	82045	15.71	0
2	82609	15.81	0
2	83173	15.91	0
2	83746	16.01	0
2	84310	16.11	0
2	84874	16.21	0
2	85438	16.31	0
2	86002	16.41	0
2	86566	16.51	0
2	87130	16.61	0
2	87694	16.71	0
2	88258	16.81	0
2	88822	16.91	0
2	89395	17.01	0
2	89959	17.11	0
2	90523	17.21	0
2	91087	17.31	0
2	91651	17.41	0
2	92215	17.51	0
2	92779	17.61	0
2	93343	17.71	0
2	93907	17.81	0
2	94471	17.91	0
2	95044	18.01	0
2	95608	18.11	0
2	96172	18.21	0
2	96736	18.31	0
2	97300	18.41	0
2	97864	18.51	0
2	98428	18.61	0
2	98992	18.71	0
2	99556	18.81	0
2	100120	18.91	0
2	100693	19.01	0
2	101257	19.11	0
2	101821	19.21	0
2	102385	19.31	0
2	102949	19.41	0
2	103513	19.51	0
2	104077	19.61	0
2	104641	19.71	0
2	105205	19.81	0
2	105769	19.91	0
2	106342	20.01	0
2	106906	20.11	0
2	107470	20.21	0
2	108034	20.31	0
2	108598	20.41	0
2	109162	20.51	0
2	109726	20.61	0
2	110290	20.71	0
2	110854	20.81	0
2	111418	20.91	0
2	111991	21.01	0
2	112555	21.11	0
2	113119	21.21	0
2	113683	21.31	0
2	114247	21.41	0
2	114811	21.51	0
2	115375	21.61	0
2	115939	21.71	0
2	116503	21.81	0
2	117067	21.91	0
2	117640	22.01	0
2	118204	22.11	0
2	118768	22.21	0
2	119332	22.31	0
2	119896	22.41	0
2	120460	22.51	0
2	121024	22.61	0
2	121588	22.71	0
2	122152	22.81	0
2	122716	22.91	0
2	123289	23.01	0
2	123853	23.11	0
2	124417	23.21	0
2	124981	23.31	0
2	125545	23.41	0
2	126109	23.51	0
2	126673	23.61	0
2	127237	23.71	0
2	127801	23.81	0
2	128365	23.91	0
2	128938	24.01	0
2	129502	24.11	0
2	130066	24.21	0
2	130630	24.31	0
2	131194	24.41	0
2	131758	24.51	0
2	132322	24.61	0
2	132886	24.71	0
2	133450	24.81	0
2	134014	24.91	0
2	134587	25.01	0
2	135151	25.11	0
2	135715	25.21	0
2	136279	25.31	0
2	136843	25.41	0
2	137407	25.51	0
2	137971	25.61	0
2	138535	25.71	0
2	139099	25.81	0
2	139663	25.91	0
2	140236	26.01	0
2	140800	26.11	0
2	141364	26.21	0
2	141928	26.31	0
2	142492	26.41	0
2	143056	26.51	0
2	143620	26.61	0
2	144184	26.71	0
2	144748	26.81	0
2	145312	26.91	0
2	145885	27.01	0
2	146449	27.11	0
2	147013	27.21	0
2	147577	27.31	0
2	148141	27.41	0
2	148705	27.51	0
2	149269	27.61	0
2	149833	27.71	0
2	150397	27.81	0
2	150961	27.91	0
2	151534	28.01	0
2	152098	28.11	0
2	152662	28.21	0
2	153226	28.31	0
2	153790	28.41	0
2	154354	28.51	0
2	154918	28.61	0
2	155482	28.71	0
2	156046	28.81	0
2	156610	28.91	0
2	157183	29.01	0
2	157747	29.11	0
2	158311	29.21	0
2	158875	29.31	0
2	159439	29.41	0
2	160003	29.51	0
2	160567	29.61	0
2	161131	29.71	0
2	161695	29.81	0
2	162259	29.91	0
2	162832	30.01	0
2	163396	30.11	0
2	163960	30.21	0
2	164524	30.31	0
2	165088	30.41	0
2	165652	30.51	0
2	166216	30.61	0
2	166780	30.71	0
2	167344	30.81	0
2	167908	30.91	0
2	168481	31.01	0
2	169045	31.11	0
2	169609	31.21	0
2	170173	31.31	0
2	170737	31.41	0
2	171301	31.51	0
2	171865	31.61	0
2	172429	31.71	0
2	172993	31.81	0
2	173557	31.91	0
2	174130	32.01	0
2	174694	32.11	0
2	175258	32.21	0
2	175822	32.31	0
2	176386	32.41	0
2	176950	32.51	0
2	177514	32.61	0
2	178078	32.71	0
2	178642	32.81	0
2	179206	32.91	0
2	179779	33.01	0
2	180343	33.11	0
2	180907	33.21	0
2	181471	33.31	0
2	182035	33.41	0
2	182599	33.51	0
2	183163	33.61	0
2	183727	33.71	0
2	184291	33.81	0
2	184855	33.91	0
2	185428	34.01	0
2	185992	34.11	0
2	186556	34.21	0
2	187120	34.31	0
2	187684	34.41	0
2	188248	34.51	0
2	188812	34.61	0
2	189376	34.71	0
2	189940	34.81	0
2	190504	34.91	0
2	191077	35.01	0
2	191641	35.11	0
2	192205	35.21	0
2	192769	35.31	0
2	193333	35.41	0
2	193897	35.51	0
2	194461	35.61	0
2	195025	35.71	0
2	195589	35.81	0
2	196153	35.91	0
2	196726	36.01	0
2	197290	36.11	0
2	197854	36.21	0
2	198418	36.31	0
2	198982	36.41	0
2	199546	36.51	0
2	200110	36.61	0
2	200674	36.71	0
2	201238	36.81	0
2	201802	36.91	0
2	202375	37.01	0
2	202939	37.11	0
2	203503	37.21	0
2	204067	37.31	0
2	204631	37.41	0
2	205195	37.51	0
2	205759	37.61	0
2	206323	37.71	0
2	206887	37.81	0
2	207451	37.91	0
2	208024	38.01	0
2	208588	38.11	0
2	209152	38.21	0
2	209716	38.31	0
2	210280	38.41	0
2	210844	38.51	0
2	211408	38.61	0
2	211972	38.71	0
2	212536	38.81	0
2	213100	38.91	0
2	213673	39.01	0
2	214237	39.11	0
2	214801	39.21	0
2	215365	39.31	0
2	215929	39.41	0
2	216493	39.51	0
2	217057	39.61	0
2	217621	39.71	0
2	218185	39.81	0
2	218749	39.91	0
2	219322	40.01	0
2	219886	40.11	0
2	220450	40.21	0
2	221014	40.31	0
2	221578	40.41	0
2	222142	40.51	0
2	222706	40.61	0
2	223270	40.71	0
2	223834	40.81	0
2	224398	40.91	0
2	224971	41.01	0
2	225535	41.11	0
2	226099	41.21	0
2	226663	41.31	0
2	227227	41.41	0
2	227791	41.51	0
2	228355	41.61	0
2	228919	41.71	0
2	229483	41.81	0
2	230047	41.91	0
2	230620	42.01	0
2	231184	42.11	0
2	231748	42.21	0
2	232312	42.31	0
2	232876	42.41	0
2	233440	42.51	0
2	234004	42.61	0
2	234661	42.71	0
2	235224	42.81	0
2	235787	42.91	0
2	236359	43.01	0
2	236922	43.11	0
2	237485	43.21	0
2	238048	43.31	0
2	238611	43.41	0
2	239174	43.51	0
2	239737	43.61	0
2	240300	43.71	0
2	240863	43.81	0
2	241426	43.91	0
2	241998	44.01	0
2	242561	44.11	0
2	243124	44.21	0
2	243687	44.31	0
2	244250	44.41	0
2	244813	44.51	0
2	245376	44.61	0
2	245939	44.71	0
2	246502	44.81	0
2	247065	44.91	0
2	247637	45.01	0
2	248200	45.11	0
2	248763	45.21	0
2	249326	45.31	0
2	249889	45.41	0
2	250452	45.51	0
2	251015	45.61	0
2	251578	45.71	0
2	252141	45.81	0
2	252704	45.91	0
2	253276	46.01	0
2	253839	46.11	0
2	254402	46.21	0
2	254965	46.31	0
2	255528	46.41	0
2	256091	46.51	0
2	256654	46.61	0
2	257217	46.71	0
2	257780	46.81	0
2	258343	46.91	0
2	258915	47.01	0
2	259478	47.11	0
2	260041	47.21	0
2	260604	47.31	0
2	261167	47.41	0
2	261730	47.51	0
2	262293	47.61	0
2	262856	47.71	0
2	263419	47.81	0
2	263982	47.91	0
2	264554	48.01	0
2	265117	48.11	0
2	265680	48.21	0
2	266243	48.31	0
2	266806	48.41	0
2	267476	48.51	0
2	268038	48.61	0
2	268600	48.71	0
2	269162	48.81	0
2	269724	48.91	0
2	270295	49.01	0
2	270857	49.11	0
2	271419	49.21	0
2	271981	49.31	0
2	272543	49.41	0
2	273105	49.51	0
2	273667	49.61	0
2	274229	49.71	0
2	274791	49.81	0
2	275353	49.91	0
2	275924	50.01	0
2	276486	50.11	0
2	277048	50.21	0
2	277610	50.31	0
2	278172	50.41	0
2	278734	50.51	0
2	279296	50.61	0
2	279858	50.71	0
2	280420	50.81	0
2	280982	50.91	0
2	281553	51.01	0
2	282115	51.11	0
2	282677	51.21	0
2	283239	51.31	0
2	283801	51.41	0
2	284363	51.51	0
2	284925	51.61	0
2	285487	51.71	0
2	286049	51.81	0
2	286611	51.91	0
2	287182	52.01	0
2	287744	52.11	0
2	288306	52.21	0
2	288868	52.31	0
2	289430	52.41	0
2	289992	52.51	0
2	290554	52.61	0
2	291116	52.71	0
2	291678	52.81	0
2	292240	52.91	0
2	292811	53.01	0
2	293373	53.11	0
2	293935	53.21	0
2	294497	53.31	0
2	295059	53.41	0
2	295621	53.51	0
2	296183	53.61	0
2	296745	53.71	0
2	297400	53.81	0
2	297961	53.91	0
2	298531	54.01	0
2	299092	54.11	0
2	299653	54.21	0
2	300214	54.31	0
2	300775	54.41	0
2	301336	54.51	0
2	301897	54.61	0
2	302458	54.71	0
2	303019	54.81	0
2	303580	54.91	0
2	304150	55.01	0
2	304711	55.11	0
2	305272	55.21	0
2	305833	55.31	0
2	306394	55.41	0
2	306955	55.51	0
2	307516	55.61	0
2	308077	55.71	0
2	308638	55.81	0
2	309199	55.91	0
2	309769	56.01	0
2	310330	56.11	0
2	310891	56.21	0
2	311452	56.31	0
2	312013	56.41	0
2	312574	56.51	0
2	313135	56.61	0
2	313696	56.71	0
2	314257	56.81	0
2	314818	56.91	0
2	315388	57.01	0
2	315949	57.11	0
2	316510	57.21	0
2	317071	57.31	0
2	317632	57.41	0
2	318193	57.51	0
2	318754	57.61	0
2	319315	57.71	0
2	319876	57.81	0
2	320437	57.91	0
2	321007	58.01	0
2	321568	58.11	0
2	322129	58.21	0
2	322690	58.31	0
2	323251	58.41	0
2	323812	58.51	0
2	324466	58.61	0
2	325026	58.71	0
2	325586	58.81	0
2	326146	58.91	0
2	326715	59.01	0
2	327275	59.11	0
2	327835	59.21	0
2	328395	59.31	0
2	328955	59.41	0
2	329515	59.51	0
2	330075	59.61	0
2	330635	59.71	0
2	331195	59.81	0
2	331755	59.91	0
2	332324	60.01	0
2	332884	60.11	0
2	333444	60.21	0
2	334004	60.31	0
2	334564	60.41	0
2	335124	60.51	0
2	335684	60.61	0
2	336244	60.71	0
2	336804	60.81	0
2	337364	60.91	0
2	337933	61.01	0
2	338493	61.11	0
2	339053	61.21	0
2	339613	61.31	0
2	340173	61.41	0
2	340733	61.51	0
2	341293	61.61	0
2	341853	61.71	0
2	342413	61.81	0
2	342973	61.91	0
2	343542	62.01	0
2	344102	62.11	0
2	344662	62.21	0
2	345222	62.31	0
2	345782	62.41	0
2	346342	62.51	0
2	346902	62.61	0
2	347462	62.71	0
2	348022	62.81	0
2	348582	62.91	0
2	349151	63.01	0
2	349711	63.11	0
2	350271	63.21	0
2	350924	63.31	0
2	351483	63.41	0
2	352042	63.51	0
2	352601	63.61	0
2	353160	63.71	0
2	353719	63.81	0
2	354278	63.91	0
2	354846	64.01	0
2	355405	64.11	0
2	355964	64.21	0
2	356523	64.31	0
2	357082	64.41	0
2	357641	64.51	0
2	358200	64.61	0
2	358759	64.71	0
2	359318	64.81	0
2	359877	64.91	0
2	360445	65.01	0
2	361004	65.11	0
2	361563	65.21	0
2	362122	65.31	0
2	362681	65.41	0
2	363240	65.51	0
2	363799	65.61	0
2	364358	65.71	0
2	364917	65.81	0
2	365476	65.91	0
2	366044	66.01	0
2	366603	66.11	0
2	367162	66.21	0
2	367721	66.31	0
2	368280	66.41	0
2	368839	66.51	0
2	369398	66.61	0
2	369957	66.71	0
2	370516	66.81	0
2	371075	66.91	0
2	371643	67.01	0
2	372202	67.11	0
2	372761	67.21	0
2	373320	67.31	0
2	373879	67.41	0
2	374438	67.51	0
2	374997	67.61	0
2	375556	67.71	0
2	376208	67.81	0
2	376766	67.91	0
2	377333	68.01	0
2	377891	68.11	0
2	378449	68.21	0
2	379007	68.31	0
2	379565	68.41	0
2	380123	68.51	0
2	380681	68.61	0
2	381239	68.71	0
2	381797	68.81	0
2	382355	68.91	0
2	382922	69.01	0
2	383480	69.11	0
2	384038	69.21	0
2	384596	69.31	0
2	385154	69.41	0
2	385712	69.51	0
2	386270	69.61	0
2	386828	69.71	0
2	387386	69.81	0
2	387944	69.91	0
2	388511	70.01	0
2	389069	70.11	0
2	389627	70.21	0
2	390185	70.31	0
2	390743	70.41	0
2	391301	70.51	0
2	391859	70.61	0
2	392417	70.71	0
2	392975	70.81	0
2	393533	70.91	0
2	394100	71.01	0
2	394658	71.11	0
2	395216	71.21	0
2	395774	71.31	0
2	396332	71.41	0
2	396890	71.51	0
2	397448	71.61	0
2	398006	71.71	0
2	398564	71.81	0
2	399122	71.91	0
2	399689	72.01	0
2	400991	72.11	0
2	401548	72.21	0
2	402105	72.31	0
2	402662	72.41	0
2	403219	72.51	0
2	403776	72.61	0
2	404333	72.71	0
2	404890	72.81	0
2	405447	72.91	0
2	406013	73.01	0
2	406570	73.11	0
2	407127	73.21	0
2	407684	73.31	0
2	408241	73.41	0
2	408798	73.51	0
2	409355	73.61	0
2	409912	73.71	0
2	410469	73.81	0
2	411026	73.91	0
2	411592	74.01	0
2	412149	74.11	0
2	412706	74.21	0
2	413263	74.31	0
2	413820	74.41	0
2	414377	74.51	0
2	414934	74.61	0
2	415491	74.71	0
2	416048	74.81	0
2	416605	74.91	0
2	417171	75.01	0
2	417728	75.11	0
2	418285	75.21	0
2	418842	75.31	0
2	419399	75.41	0
2	419956	75.51	0
2	420513	75.61	0
2	421070	75.71	0
2	421627	75.81	0
2	422184	75.91	0
2	422750	76.01	0
2	423307	76.11	0
2	423864	76.21	0
2	424421	76.31	0
2	424978	76.41	0
2	425535	76.51	0
2	426092	76.61	0
2	426649	76.71	0
2	427206	76.81	0
2	427763	76.91	0
2	428329	77.01	0
2	428886	77.11	0
2	429443	77.21	0
2	430000	77.31	0
2	430557	77.41	0
2	431114	77.51	0
2	431671	77.61	0
2	432228	77.71	0
2	432785	77.81	0
2	433342	77.91	0
2	433908	78.01	0
2	434465	78.11	0
2	435022	78.21	0
2	435579	78.31	0
2	436136	78.41	0
2	436693	78.51	0
2	437250	78.61	0
2	437807	78.71	0
2	438364	78.81	0
2	438921	78.91	0
2	439487	79.01	0
2	440044	79.11	0
2	440601	79.21	0
2	441158	79.31	0
2	441715	79.41	0
2	442272	79.51	0
2	442829	79.61	0
2	443386	79.71	0
2	443943	79.81	0
2	444500	79.91	0
2	445066	80.01	0
2	445623	80.11	0
2	446180	80.21	0
2	446737	80.31	0
2	447294	80.41	0
2	447851	80.51	0
2	448408	80.61	0
2	448965	80.71	0
2	449522	80.81	0
2	450079	80.91	0
2	450645	81.01	0
2	451202	81.11	0
2	451759	81.21	0
2	452316	81.31	0
2	452873	81.41	0
2	453430	81.51	0
2	453987	81.61	0
2	454544	81.71	0
2	455101	81.81	0
2	455658	81.91	0
2	456224	82.01	0
2	456781	82.11	0
2	457338	82.21	0
2	457895	82.31	0
2	458452	82.41	0
2	459009	82.51	0
2	459566	82.61	0
2	460123	82.71	0
2	460680	82.81	0
2	461237	82.91	0
2	461803	83.01	0
2	462360	83.11	0
2	462917	83.21	0
2	463474	83.31	0
2	464031	83.41	0
2	464588	83.51	0
2	465145	83.61	0
2	465702	83.71	0
2	466259	83.81	0
2	466816	83.91	0
2	467382	84.01	0
2	467939	84.11	0
2	468496	84.21	0
2	469053	84.31	0
2	469610	84.41	0
2	470167	84.51	0
2	470724	84.61	0
2	471281	84.71	0
2	471838	84.81	0
2	472395	84.91	0
2	472961	85.01	0
2	473518	85.11	0
2	474075	85.21	0
2	474632	85.31	0
2	475189	85.41	0
2	475746	85.51	0
2	476303	85.61	0
2	476860	85.71	0
2	477417	85.81	0
2	477974	85.91	0
2	478540	86.01	0
2	479097	86.11	0
2	479654	86.21	0
2	480211	86.31	0
2	480768	86.41	0
2	481325	86.51	0
2	481882	86.61	0
2	482439	86.71	0
2	482996	86.81	0
2	483553	86.91	0
2	484119	87.01	0
2	484676	87.11	0
2	485233	87.21	0
2	485790	87.31	0
2	486347	87.41	0
2	486904	87.51	0
2	487461	87.61	0
2	488018	87.71	0
2	488575	87.81	0
2	489132	87.91	0
2	489698	88.01	0
2	490255	88.11	0
2	490812	88.21	0
2	491369	88.31	0
2	491926	88.41	0
2	492483	88.51	0
2	493040	88.61	0
2	493597	88.71	0
2	494154	88.81	0
2	494711	88.91	0
2	495277	89.01	0
2	495834	89.11	0
2	496391	89.21	0
2	496948	89.31	0
2	497505	89.41	0
2	498062	89.51	0
2	498619	89.61	0
2	499176	89.71	0
2	499733	89.81	0
2	500290	89.91	0
2	500856	90.01	0
2	501413	90.11	0
2	501970	90.21	0
2	502527	90.31	0
2	503084	90.41	0
2	503641	90.51	0
2	504198	90.61	0
2	504755	90.71	0
2	505312	90.81	0
2	505869	90.91	0
2	506435	91.01	0
2	506992	91.11	0
2	507549	91.21	0
2	508106	91.31	0
2	508663	91.41	0
2	509220	91.51	0
2	509777	91.61	0
2	510334	91.71	0
2	510891	91.81	0
2	511448	91.91	0
2	512014	92.01	0
2	512571	92.11	0
2	513128	92.21	0
2	513685	92.31	0
2	514242	92.41	0
2	514799	92.51	0
2	515356	92.61	0
2	515913	92.71	0
2	516470	92.81	0
2	517027	92.91	0
2	517593	93.01	0
2	518150	93.11	0
2	518707	93.21	0
2	519264	93.31	0
2	519821	93.41	0
2	520378	93.51	0
2	520935	93.61	0
2	521492	93.71	0
2	522049	93.81	0
2	522606	93.91	0
2	523172	94.01	0
2	523729	94.11	0
2	524286	94.21	0
2	524843	94.31	0
2	525400	94.41	0
2	525957	94.51	0
2	526514	94.61	0
2	527071	94.71	0
2	527628	94.81	0
2	528185	94.91	0
2	528751	95.01	0
2	529308	95.11	0
2	529865	95.21	0
2	530422	95.31	0
2	530979	95.41	0
2	531536	95.51	0
2	532093	95.61	0
2	532650	95.71	0
2	533207	95.81	0
2	533764	95.91	0
2	534330	96.01	0
2	534887	96.11	0
2	535444	96.21	0
2	536001	96.31	0
2	536558	96.41	0
2	537115	96.51	0
2	537672	96.61	0
2	538229	96.71	0
2	538786	96.81	0
2	539343	96.91	0
2	539909	97.01	0
2	540466	97.11	0
2	541023	97.21	0
2	541580	97.31	0
2	542137	97.41	0
2	542694	97.51	0
2	543251	97.61	0
2	543808	97.71	0
2	544365	97.81	0
2	544922	97.91	0
2	545488	98.01	0
2	546045	98.11	0
2	546602	98.21	0
2	547159	98.31	0
2	547716	98.41	0
2	548273	98.51	0
2	548830	98.61	0
2	549387	98.71	0
2	549944	98.81	0
2	550501	98.91	0
2	551067	99.01	0
2	551624	99.11	0
2	552181	99.21	0
2	552738	99.31	0
2	553295	99.41	0
2	553852	99.51	0
2	554409	99.61	0
2	554966	99.71	0
2	555523	99.81	0
2	556080	99.91	0
3	113	1.11	-0.000716383
3	670	1.21	-0.00136341
3	1227	1.31	-0.00186974
3	1784	1.41	-0.00225157
3	2341	1.51	-0.00252443
3	2898	1.61	-0.00270298
3	3455	1.71	-0.00280098
3	4012	1.81	-0.00283113
3	4569	1.91	-0.00280509
3	5135	2.01	-0.00273342
3	5692	2.11	-0.00262559
3	6249	2.21	-0.00249005
3	6806	2.31	-0.00233419
3	7363	2.41	-0.00216447
3	7920	2.51	-0.00198642
3	8477	2.61	-0.00180472
3	9034	2.71	-0.0016233
3	9591	2.81	-0.00144536
3	10148	2.91	-0.00127346
3	10714	3.01	-0.0011096
3	11271	3.11	-0.000955278
3	11828	3.21	-0.000811546
3	12385	3.31	-0.00067908
3	12942	3.41	-0.000558232
3	13499	3.51	-0.000449082
3	14056	3.61	-0.000351487
3	14613	3.71	-0.00026512
3	15170	3.81	-0.000189514
3	15727	3.91	-0.000124092
3	16293	4.01	-6.81972e-05
3	16850	4.11	-2.11209e-05
3	17407	4.21	1.78769e-05
3	17964	4.31	4.9548e-05
3	18521	4.41	7.46407e-05
3	19078	4.51	9.38867e-05
3	19635	4.61	0.000107991
3	20192	4.71	0.000117625
3	20749	4.81	0.000123418
3	21306	4.91	0.000125957
3	21872	5.01	0.000125781
3	22429	5.11	0.00012338
3	22986	5.21	0.000119198
3	23543	5.31	0.000113629
3	24100	5.41	0.000107022
3	24657	5.51	9.96832e-05
3	25214	5.61	9.18747e-05
3	25771	5.71	8.38211e-05
3	26328	5.81	7.57109e-05
3	26885	5.91	6.76999e-05
3	27451	6.01	5.99137e-05
3	28008	6.11	5.24518e-05
3	28565	6.21	4.53896e-05
3	29122	6.31	3.87821e-05
3	29679	6.41	3.2666e-05
3	30236	6.51	2.70628e-05
3	30793	6.61	2.19809e-05
3	31350	6.71	1.74176e-05
3	31907	6.81	1.33618e-05
3	32464	6.91	9.79494e-06
3	33030	7.01	6.6932e-06
3	33587	7.11	4.02864e-06
3	34144	7.21	1.77051e-06
3	34701	7.31	-1.13691e-07
3	35258	7.41	-1.65736e-06
3	35815	7.51	-2.89397e-06
3	36372	7.61	-3.85652e-06
3	36929	7.71	-4.57698e-06
3	37486	7.81	-5.08591e-06
3	38043	7.91	-5.41219e-06
3	38609	8.01	-5.58279e-06
3	39166	8.11	-5.6226e-06
3	39723	8.21	-5.55442e-06
3	40280	8.31	-5.39886e-06
3	40837	8.41	-5.17441e-06
3	41394	8.51	-4.89748e-06
3	41951	8.61	-4.58246e-06
3	42508	8.71	-4.24184e-06
3	43065	8.81	-3.88634e-06
3	43622	8.91	-3.52499e-06
3	44188	9.01	-3.16534e-06
3	44745	9.11	-2.81353e-06
3	45302	9.21	-2.47446e-06
3	45859	9.31	-2.15192e-06
3	46416	9.41	-1.84873e-06
3	46973	9.51	-1.56685e-06
3	47530	9.61	-1.30751e-06
3	48087	9.71	-1.0713e-06
3	48644	9.81	-8.58321e-07
3	49201	9.91	-6.68206e-07
3	49852	10.01	-5.0026e-07
3	50416	10.11	-3.53514e-07
3	50980	10.21	-2.2679e-07
3	51544	10.31	-1.18765e-07
3	52108	10.41	-2.80163e-08
3	52672	10.51	4.6931e-08
3	53236	10.61	1.07573e-07
3	53800	10.71	1.55391e-07
3	54364	10.81	1.91831e-07
3	54928	10.91	2.18284e-07
3	55501	11.01	2.3607e-07
3	56065	11.11	2.46427e-07
3	56629	11.21	2.50502e-07
3	57193	11.31	2.49353e-07
3	57757	11.41	2.43938e-07
3	58321	11.51	2.3512e-07
3	58885	11.61	2.23669e-07
3	59449	11.71	2.10264e-07
3	60013	11.81	1.95496e-07
3	60577	11.91	1.79874e-07
3	61150	12.01	1.63833e-07
3	61714	12.11	1.47736e-07
3	62278	12.21	1.3188e-07
3	62842	12.31	1.16508e-07
3	63406	12.41	1.01807e-07
3	63970	12.51	8.79222e-08
3	64534	12.61	7.49541e-08
3	65098	12.71	6.29711e-08
3	65662	12.81	5.20114e-08
3	66226	12.91	4.20883e-08
3	66799	13.01	3.3193e-08
3	67363	13.11	2.53003e-08
3	67927	13.21	1.83718e-08
3	68491	13.31	1.23581e-08
3	69055	13.41	7.20348e-09
3	69619	13.51	2.84537e-09
3	70183	13.61	-7.80886e-10
3	70747	13.71	-3.74136e-09
3	71311	13.81	-6.10285e-09
3	71875	13.91	-7.93072e-09
3	72448	14.01	-9.28821e-09
3	73012	14.11	-1.0235e-08
3	73576	14.21	-1.08283e-08
3	74140	14.31	-1.11211e-08
3	74704	14.41	-1.11612e-08
3	75268	14.51	-1.09946e-08
3	75832	14.61	-1.06599e-08
3	76396	14.71	-1.01945e-08
3	76960	14.81	-9.62999e-09
3	77524	14.91	-8.99405e-09
3	78097	15.01	-8.31086e-09
3	78661	15.11	-7.60103e-09
3	79225	15.21	-6.88338e-09
3	79789	15.31	-6.17071e-09
3	80353	15.41	-5.47544e-09
3	80917	15.51	-4.80682e-09
3	81481	15.61	-4.17266e-09
3	82045	15.71	-3.57687e-09
3	82609	15.81	-3.02443e-09
3	83173	15.91	-2.51674e-09
3	83746	16.01	-2.05489e-09
3	84310	16.11	-1.63958e-09
3	84874	16.21	-1.26903e-09
3	85438	16.31	-9.42535e-10
3	86002	16.41	-6.57963e-10
3	86566	16.51	-4.1247e-10
3	87130	16.61	-2.04636e-10
3	87694	16.71	-2.91323e-11
3	88258	16.81	1.14753e-10
3	88822	16.91	2.30926e-10
3	89395	17.01	3.22231e-10
3	89959	17.11	3.91154e-10
3	90523	17.21	4.40892e-10
3	91087	17.31	4.73577e-10
3	91651	17.41	4.92051e-10
3	92215	17.51	4.98446e-10
3	92779	17.61	4.94893e-10
3	93343	17.71	4.82814e-10
3	93907	17.81	4.6434e-10
3	94471	17.91	4.40892e-10
3	95044	18.01	4.13536e-10
3	95608	18.11	3.83693e-10
3	96172	18.21	3.51719e-10
3	96736	18.31	3.19744e-10
3	97300	18.41	2.8777e-10
3	97864	18.51	2.55795e-10
3	98428	18.61	2.25953e-10
3	98992	18.71	1.97531e-10
3	99556	18.81	1.6982e-10
3	100120	18.91	1.44951e-10
3	100693	19.01	1.21503e-10
3	101257	19.11	1.00187e-10
3	101821	19.21	8.10019e-11
3	102385	19.31	6.32383e-11
3	102949	19.41	4.86722e-11
3	103513	19.51	3.44613e-11
3	104077	19.61	2.34479e-11
3	104641	19.71	1.27898e-11
3	105205	19.81	4.9738e-12
3	105769	19.91	-2.13163e-12
3	106342	20.01	-8.17124e-12
3	106906	20.11	-1.1724e-11
3	107470	20.21	-1.52767e-11
3	108034	20.31	-1.88294e-11
3	108598	20.41	-2.02505e-11
3	109162	20.51	-2.02505e-11
3	109726	20.61	-2.02505e-11
3	110290	20.71	-2.02505e-11
3	110854	20.81	-2.02505e-11
3	111418	20.91	-2.02505e-11
3	111991	21.01	-2.02505e-11
3	112555	21.11	-2.02505e-11
3	113119	21.21	-2.02505e-11
3	113683	21.31	-1.88294e-11
3	114247	21.41	-1.7053e-11
3	114811	21.51	-1.52767e-11
3	115375	21.61	-1.38556e-11
3	115939	21.71	-1.24345e-11
3	116503	21.81	-1.13687e-11
3	117067	21.91	-1.03029e-11
3	117640	22.01	-9.23706e-12
3	118204	22.11	-8.52651e-12
3	118768	22.21	-7.4607e-12
3	119332	22.31	-6.75016e-12
3	119896	22.41	-6.03961e-12
3	120460	22.51	-5.68434e-12
3	121024	22.61	-4.9738e-12
3	121588	22.71	-4.61853e-12
3	122152	22.81	-4.26326e-12
3	122716	22.91	-3.90799e-12
3	123289	23.01	-3.55271e-12
3	123853	23.11	-3.19744e-12
3	124417	23.21	-2.84217e-12
3	124981	23.31	-2.4869e-12
3	125545	23.41	-2.13163e-12
3	126109	23.51	-2.13163e-12
3	126673	23.61	-1.77636e-12
3	127237	23.71	-1.77636e-12
3	127801	23.81	-1.42109e-12
3	128365	23.91	-1.42109e-12
3	128938	24.01	-1.06581e-12
3	129502	24.11	-1.06581e-12
3	130066	24.21	-1.06581e-12
3	130630	24.31	-1.06581e-12
3	131194	24.41	-7.10543e-13
3	131758	24.51	-7.10543e-13
3	132322	24.61	-7.10543e-13
3	132886	24.71	-7.10543e-13
3	133450	24.81	-7.10543e-13
3	134014	24.91	-3.55271e-13
3	134587	25.01	-3.55271e-13
3	135151	25.11	-3.55271e-13
3	135715	25.21	-3.55271e-13
3	136279	25.31	-3.55271e-13
3	136843	25.41	-3.55271e-13
3	137407	25.51	-3.55271e-13
3	137971	25.61	-3.55271e-13
3	138535	25.71	-3.55271e-13
3	139099	25.81	-3.55271e-13
3	139663	25.91	0
3	140236	26.01	0
3	140800	26.11	0
3	141364	26.21	0
3	141928	26.31	0
3	142492	26.41	0
3	143056	26.51	0
3	143620	26.61	0
3	144184	26.71	0
3	144748	26.81	0
3	145312	26.91	0
3	145885	27.01	0
3	146449	27.11	0
3	147013	27.21	0
3	147577	27.31	0
3	148141	27.41	0
3	148705	27.51	0
3	149269	27.61	0
3	149833	27.71	0
3	150397	27.81	0
3	150961	27.91	0
3	151534	28.01	0
3	152098	28.11	0
3	152662	28.21	0
3	153226	28.31	0
3	153790	28.41	0
3	154354	28.51	0
3	154918	28.61	0
3	155482	28.71	0
3	156046	28.81	0
3	156610	28.91	0
3	157183	29.01	0
3	157747	29.11	0
3	158311	29.21	0
3	158875	29.31	0
3	159439	29.41	0
3	160003	29.51	0
3	160567	29.61	0
3	161131	29.71	0
3	161695	29.81	0
3	162259	29.91	0
3	162832	30.01	0
3	163396	30.11	0
3	163960	30.21	0
3	164524	30.31	0
3	165088	30.41	0
3	165652	30.51	0
3	166216	30.61	0
3	166780	30.71	0
3	167344	30.81	0
3	167908	30.91	0
3	168481	31.01	0
3	169045	31.11	0
3	169609	31.21	0
3	170173	31.31	0
3	170737	31.41	0
3	171301	31.51	0
3	171865	31.61	0
3	172429	31.71	0
3	172993	31.81	0
3	173557	31.91	0
3	174130	32.01	0
3	174694	32.11	0
3	175258	32.21	0
3	175822	32.31	0
3	176386	32.41	0
3	176950	32.51	0
3	177514	32.61	0
3	178078	32.71	0
3	178642	32.81	0
3	179206	32.91	0
3	179779	33.01	0
3	180343	33.11	0
3	180907	33.21	0
3	181471	33.31	0
3	182035	33.41	0
3	182599	33.51	0
3	183163	33.61	0
3	183727	33.71	0
3	184291	33.81	0
3	184855	33.91	0
3	185428	34.01	0
3	185992	34.11	0
3	186556	34.21	0
3	187120	34.31	0
3	187684	34.41	0
3	188248	34.51	0
3	188812	34.61	0
3	189376	34.71	0
3	189940	34.81	0
3	190504	34.91	0
3	191077	35.01	0
3	191641	35.11	0
3	192205	35.21	0
3	192769	35.31	0
3	193333	35.41	0
3	193897	35.51	0
3	194461	35.61	0
3	195025	35.71	0
3	195589	35.81	0
3	196153	35.91	0
3	196726	36.01	0
3	197290	36.11	0
3	197854	36.21	0
3	198418	36.31	0
3	198982	36.41	0
3	199546	36.51	0
3	200110	36.61	0
3	200674	36.71	0
3	201238	36.81	0
3	201802	36.91	0
3	202375	37.01	0
3	202939	37.11	0
3	203503	37.21	0
3	204067	37.31	0
3	204631	37.41	0
3	205195	37.51	0
3	205759	37.61	0
3	206323	37.71	0
3	206887	37.81	0
3	207451	37.91	0
3	208024	38.01	0
3	208588	38.11	0
3	209152	38.21	0
3	209716	38.31	0
3	210280	38.41	0
3	210844	38.51	0
3	211408	38.61	0
3	211972	38.71	0
3	212536	38.81	0
3	213100	38.91	0
3	213673	39.01	0
3	214237	39.11	0
3	214801	39.21	0
3	215365	39.31	0
3	215929	39.41	0
3	216493	39.51	0
3	217057	39.61	0
3	217621	39.71	0
3	218185	39.81	0
3	218749	39.91	0
3	219322	40.01	0
3	219886	40.11	0
3	220450	40.21	0
3	221014	40.31	0
3	221578	40.41	0
3	222142	40.51	0
3	222706	40.61	0
3	223270	40.71	0
3	223834	40.81	0
3	224398	40.91	0
3	224971	41.01	0
3	225535	41.11	0
3	226099	41.21	0
3	226663	41.31	0
3	227227	41.41	0
3	227791	41.51	0
3	228355	41.61	0
3	228919	41.71	0
3	229483	41.81	0
3	230047	41.91	0
3	230620	42.01	0
3	231184	42.11	0
3	231748	42.21	0
3	232312	42.31	0
3	232876	42.41	0
3	233440	42.51	0
3	234004	42.61	0
3	234661	42.71	0
3	235224	42.81	0
3	235787	42.91	0
3	236359	43.01	0
3	236922	43.11	0
3	237485	43.21	0
3	238048	43.31	0
3	238611	43.41	0
3	239174	43.51	0
3	239737	43.61	0
3	240300	43.71	0
3	240863	43.81	0
3	241426	43.91	0
3	241998	44.01	0
3	242561	44.11	0
3	243124	44.21	0
3	243687	44.31	0
3	244250	44.41	0
3	244813	44.51	0
3	245376	44.61	0
3	245939	44.71	0
3	246502	44.81	0
3	247065	44.91	0
3	247637	45.01	0
3	248200	45.11	0
3	248763	45.21	0
3	249326	45.31	0
3	249889	45.41	0
3	250452	45.51	0
3	251015	45.61	0
3	251578	45.71	0
3	252141	45.81	0
3	252704	45.91	0
3	253276	46.01	0
3	253839	46.11	0
3	254402	46.21	0
3	254965	46.31	0
3	255528	46.41	0
3	256091	46.51	0
3	256654	46.61	0
3	257217	46.71	0
3	257780	46.81	0
3	258343	46.91	0
3	258915	47.01	0
3	259478	47.11	0
3	260041	47.21	0
3	260604	47.31	0
3	261167	47.41	0
3	261730	47.51	0
3	262293	47.61	0
3	262856	47.71	0
3	263419	47.81	0
3	263982	47.91	0
3	264554	48.01	0
3	265117	48.11	0
3	265680	48.21	0
3	266243	48.31	0
3	266806	48.41	0
3	267476	48.51	0
3	268038	48.61	0
3	268600	48.71	0
3	269162	48.81	0
3	269724	48.91	0
3	270295	49.01	0
3	270857	49.11	0
3	271419	49.21	0
3	271981	49.31	0
3	272543	49.41	0
3	273105	49.51	0
3	273667	49.61	0
3	274229	49.71	0
3	274791	49.81	0
3	275353	49.91	0
3	275924	50.01	0
3	276486	50.11	0
3	277048	50.21	0
3	277610	50.31	0
3	278172	50.41	0
3	278734	50.51	0
3	279296	50.61	0
3	279858	50.71	0
3	280420	50.81	0
3	280982	50.91	0
3	281553	51.01	0
3	282115	51.11	0
3	282677	51.21	0
3	283239	51.31	0
3	283801	51.41	0
3	284363	51.51	0
3	284925	51.61	0
3	285487	51.71	0
3	286049	51.81	0
3	286611	51.91	0
3	287182	52.01	0
3	287744	52.11	0
3	288306	52.21	0
3	288868	52.31	0
3	289430	52.41	0
3	289992	52.51	0
3	290554	52.61	0
3	291116	52.71	0
3	291678	52.81	0
3	292240	52.91	0
3	292811	53.01	0
3	293373	53.11	0
3	293935	53.21	0
3	294497	53.31	0
3	295059	53.41	0
3	295621	53.51	0
3	296183	53.61	0
3	296745	53.71	0
3	297400	53.81	0
3	297961	53.91	0
3	298531	54.01	0
3	299092	54.11	0
3	299653	54.21	0
3	300214	54.31	0
3	300775	54.41	0
3	301336	54.51	0
3	301897	54.61	0
3	302458	54.71	0
3	303019	54.81	0
3	303580	54.91	0
3	304150	55.01	0
3	304711	55.11	0
3	305272	55.21	0
3	305833	55.31	0
3	306394	55.41	0
3	306955	55.51	0
3	307516	55.61	0
3	308077	55.71	0
3	308638	55.81	0
3	309199	55.91	0
3	309769	56.01	0
3	310330	56.11	0
3	310891	56.21	0
3	311452	56.31	0
3	312013	56.41	0
3	312574	56.51	0
3	313135	56.61	0
3	313696	56.71	0
3	314257	56.81	0
3	314818	56.91	0
3	315388	57.01	0
3	315949	57.11	0
3	316510	57.21	0
3	317071	57.31	0
3	317632	57.41	0
3	318193	57.51	0
3	318754	57.61	0
3	319315	57.71	0
3	319876	57.81	0
3	320437	57.91	0
3	321007	58.01	0
3	321568	58.11	0
3	322129	58.21	0
3	322690	58.31	0
3	323251	58.41	0
3	323812	58.51	0
3	324466	58.61	0
3	325026	58.71	0
3	325586	58.81	0
3	326146	58.91	0
3	326715	59.01	0
3	327275	59.11	0
3	327835	59.21	0
3	328395	59.31	0
3	328955	59.41	0
3	329515	59.51	0
3	330075	59.61	0
3	330635	59.71	0
3	331195	59.81	0
3	331755	59.91	0
3	332324	60.01	0
3	332884	60.11	0
3	333444	60.21	0
3	334004	60.31	0
3	334564	60.41	0
3	335124	60.51	0
3	335684	60.61	0
3	336244	60.71	0
3	336804	60.81	0
3	337364	60.91	0
3	337933	61.01	0
3	338493	61.11	0
3	339053	61.21	0
3	339613	61.31	0
3	340173	61.41	0
3	340733	61.51	0
3	341293	61.61	0
3	341853	61.71	0
3	342413	61.81	0
3	342973	61.91	0
3	343542	62.01	0
3	344102	62.11	0
3	344662	62.21	0
3	345222	62.31	0
3	345782	62.41	0
3	346342	62.51	0
3	346902	62.61	0
3	347462	62.71	0
3	348022	62.81	0
3	348582	62.91	0
3	349151	63.01	0
3	349711	63.11	0
3	350271	63.21	0
3	350924	63.31	0
3	351483	63.41	0
3	352042	63.51	0
3	352601	63.61	0
3	353160	63.71	0
3	353719	63.81	0
3	354278	63.91	0
3	354846	64.01	0
3	355405	64.11	0
3	355964	64.21	0
3	356523	64.31	0
3	357082	64.41	0
3	357641	64.51	0
3	358200	64.61	0
3	358759	64.71	0
3	359318	64.81	0
3	359877	64.91	0
3	360445	65.01	0
3	361004	65.11	0
3	361563	65.21	0
3	362122	65.31	0
3	362681	65.41	0
3	363240	65.51	0
3	363799	65.61	0
3	364358	65.71	0
3	364917	65.81	0
3	365476	65.91	0
3	366044	66.01	0
3	366603	66.11	0
3	367162	66.21	0
3	367721	66.31	0
3	368280	66.41	0
3	368839	66.51	0
3	369398	66.61	0
3	369957	66.71	0
3	370516	66.81	0
3	371075	66.91	0
3	371643	67.01	0
3	372202	67.11	0
3	372761	67.21	0
3	373320	67.31	0
3	373879	67.41	0
3	374438	67.51	0
3	374997	67.61	0
3	375556	67.71	0
3	376208	67.81	0
3	376766	67.91	0
3	377333	68.01	0
3	377891	68.11	0
3	378449	68.21	0
3	379007	68.31	0
3	379565	68.41	0
3	380123	68.51	0
3	380681	68.61	0
3	381239	68.71	0
3	381797	68.81	0
3	382355	68.91	0
3	382922	69.01	0
3	383480	69.11	0
3	384038	69.21	0
3	384596	69.31	0
3	385154	69.41	0
3	385712	69.51	0
3	386270	69.61	0
3	386828	69.71	0
3	387386	69.81	0
3	387944	69.91	0
3	388511	70.01	0
3	389069	70.11	0
3	389627	70.21	0
3	390185	70.31	0
3	390743	70.41	0
3	391301	70.51	0
3	391859	70.61	0
3	392417	70.71	0
3	392975	70.81	0
3	393533	70.91	0
3	394100	71.01	0
3	394658	71.11	0
3	395216	71.21	0
3	395774	71.31	0
3	396332	71.41	0
3	396890	71.51	0
3	397448	71.61	0
3	398006	71.71	0
3	398564	71.81	0
3	399122	71.91	0
3	399689	72.01	0
3	400991	72.11	0
3	401548	72.21	0
3	402105	72.31	0
3	402662	72.41	0
3	403219	72.51	0
3	403776	72.61	0
3	404333	72.71	0
3	404890	72.81	0
3	405447	72.91	0
3	406013	73.01	0
3	406570	73.11	0
3	407127	73.21	0
3	407684	73.31	0
3	408241	73.41	0
3	408798	73.51	0
3	409355	73.61	0
3	409912	73.71	0
3	410469	73.81	0
3	411026	73.91	0
3	411592	74.01	0
3	412149	74.11	0
3	412706	74.21	0
3	413263	74.31	0
3	413820	74.41	0
3	414377	74.51	0
3	414934	74.61	0
3	415491	74.71	0
3	416048	74.81	0
3	416605	74.91	0
3	417171	75.01	0
3	417728	75.11	0
3	418285	75.21	0
3	418842	75.31	0
3	419399	75.41	0
3	419956	75.51	0
3	420513	75.61	0
3	421070	75.71	0
3	421627	75.81	0
3	422184	75.91	0
3	422750	76.01	0
3	423307	76.11	0
3	423864	76.21	0
3	424421	76.31	0
3	424978	76.41	0
3	425535	76.51	0
3	426092	76.61	0
3	426649	76.71	0
3	427206	76.81	0
3	427763	76.91	0
3	428329	77.01	0
3	428886	77.11	0
3	429443	77.21	0
3	430000	77.31	0
3	430557	77.41	0
3	431114	77.51	0
3	431671	77.61	0
3	432228	77.71	0
3	432785	77.81	0
3	433342	77.91	0
3	433908	78.01	0
3	434465	78.11	0
3	435022	78.21	0
3	435579	78.31	0
3	436136	78.41	0
3	436693	78.51	0
3	437250	78.61	0
3	437807	78.71	0
3	438364	78.81	0
3	438921	78.91	0
3	439487	79.01	0
3	440044	79.11	0
3	440601	79.21	0
3	441158	79.31	0
3	441715	79.41	0
3	442272	79.51	0
3	442829	79.61	0
3	443386	79.71	0
3	443943	79.81	0
3	444500	79.91	0
3	445066	80.01	0
3	445623	80.11	0
3	446180	80.21	0
3	446737	80.31	0
3	447294	80.41	0
3	447851	80.51	0
3	448408	80.61	0
3	448965	80.71	0
3	449522	80.81	0
3	450079	80.91	0
3	450645	81.01	0
3	451202	81.11	0
3	451759	81.21	0
3	452316	81.31	0
3	452873	81.41	0
3	453430	81.51	0
3	453987	81.61	0
3	454544	81.71	0
3	455101	81.81	0
3	455658	81.91	0
3	456224	82.01	0
3	456781	82.11	0
3	457338	82.21	0
3	457895	82.31	0
3	458452	82.41	0
3	459009	82.51	0
3	459566	82.61	0
3	460123	82.71	0
3	460680	82.81	0
3	461237	82.91	0
3	461803	83.01	0
3	462360	83.11	0
3	462917	83.21	0
3	463474	83.31	0
3	464031	83.41	0
3	464588	83.51	0
3	465145	83.61	0
3	465702	83.71	0
3	466259	83.81	0
3	466816	83.91	0
3	467382	84.01	0
3	467939	84.11	0
3	468496	84.21	0
3	469053	84.31	0
3	469610	84.41	0
3	470167	84.51	0
3	470724	84.61	0
3	471281	84.71	0
3	471838	84.81	0
3	472395	84.91	0
3	472961	85.01	0
3	473518	85.11	0
3	474075	85.21	0
3	474632	85.31	0
3	475189	85.41	0
3	475746	85.51	0
3	476303	85.61	0
3	476860	85.71	0
3	477417	85.81	0
3	477974	85.91	0
3	478540	86.01	0
3	479097	86.11	0
3	479654	86.21	0
3	480211	86.31	0
3	480768	86.41	0
3	481325	86.51	0
3	481882	86.61	0
3	482439	86.71	0
3	482996	86.81	0
3	483553	86.91	0
3	484119	87.01	0
3	484676	87.11	0
3	485233	87.21	0
3	485790	87.31	0
3	486347	87.41	0
3	486904	87.51	0
3	487461	87.61	0
3	488018	87.71	0
3	488575	87.81	0
3	489132	87.91	0
3	489698	88.01	0
3	490255	88.11	0
3	490812	88.21	0
3	491369	88.31	0
3	491926	88.41	0
3	492483	88.51	0
3	493040	88.61	0
3	493597	88.71	0
3	494154	88.81	0
3	494711	88.91	0
3	495277	89.01	0
3	495834	89.11	0
3	496391	89.21	0
3	496948	89.31	0
3	497505	89.41	0
3	498062	89.51	0
3	498619	89.61	0
3	499176	89.71	0
3	499733	89.81	0
3	500290	89.91	0
3	500856	90.01	0
3	501413	90.11	0
3	501970	90.21	0
3	502527	90.31	0
3	503084	90.41	0
3	503641	90.51	0
3	504198	90.61	0
3	504755	90.71	0
3	505312	90.81	0
3	505869	90.91	0
3	506435	91.01	0
3	506992	91.11	0
3	507549	91.21	0
3	508106	91.31	0
3	508663	91.41	0
[...]
116	320757	58	0.024970976171
116	326466	59	0.025087590939
116	332075	60	0.0249709518
116	337684	61	0.024970941518
116	343293	62	0.024970932339
116	348902	63	0.024970924152
116	354598	64	0.025108289132
116	360197	65	0.024970910313
116	365796	66	0.024970904508
116	371395	67	0.024970899324
116	377086	68	0.025074335745
116	382675	69	0.024970890616
116	388264	70	0.024970886962
116	393853	71	0.024970883709
116	399442	72	0.024970880829
116	405767	73	0.025896865054
116	411346	74	0.024970699248
116	416925	75	0.024970653179
116	422504	76	0.024970609812
116	428083	77	0.024970511406
116	433662	78	0.024970348725
116	439241	79	0.024970043593
116	444820	80	0.024969702956
116	450399	81	0.024969367704
116	455978	82	0.024969048851
116	461557	83	0.024968747871
116	467136	84	0.024968495468
116	472715	85	0.024981201095
116	478294	86	0.024967943157
116	483873	87	0.024967753722
116	489452	88	0.024967608815
116	495031	89	0.024967529405
116	500610	90	0.024967466067
116	506189	91	0.024980398111
116	511768	92	0.024967323461
116	517347	93	0.024967244301
116	522926	94	0.024967162082
116	528505	95	0.024967077286
116	534084	96	0.024979990058
116	539663	97	0.024966900474
116	545242	98	0.024966808607
116	550821	99	0.024966714512
116	556400	100	0.024979618165
117	4889	2	0
117	10468	3	0
117	16047	4	0
117	21626	5	0
117	27205	6	0
117	32784	7	0
117	38363	8	0
117	43942	9	0
117	49523	10	0
117	55248	11	0
117	60897	12	0
117	66546	13	0
117	72195	14	0
117	77844	15	0
117	83493	16	0
117	89142	17	0
117	94791	18	0
117	100440	19	0
117	106089	20	0
117	111738	21	0
117	117387	22	0
117	123036	23	0
117	128685	24	0
117	134334	25	0
117	139983	26	0
117	145632	27	0
117	151281	28	0
117	156930	29	0
117	162579	30	0
117	168228	31	0
117	173877	32	0
117	179526	33	0
117	185175	34	0
117	190824	35	0
117	196473	36	0
117	202122	37	0
117	207771	38	0
117	213420	39	0
117	219069	40	0
117	224718	41	0
117	230367	42	0
117	236107	43	0
117	241746	44	0
117	247385	45	0
117	253024	46	0
117	258663	47	0
117	264302	48	0
117	270044	49	0
117	275673	50	0
117	281302	51	0
117	286931	52	0
117	292560	53	0
117	298281	54	0
117	303900	55	0
117	309519	56	0
117	315138	57	0
117	320757	58	0
117	326466	59	0
117	332075	60	0
117	337684	61	0
117	343293	62	0
117	348902	63	0
117	354598	64	0
117	360197	65	0
117	365796	66	0
117	371395	67	0
117	377086	68	0
117	382675	69	0
117	388264	70	0
117	393853	71	0
117	399442	72	0
117	405767	73	0
117	411346	74	0
117	416925	75	0
117	422504	76	0
117	428083	77	0
117	433662	78	0
117	439241	79	0
117	444820	80	0
117	450399	81	0
117	455978	82	0
117	461557	83	0
117	467136	84	0
117	472715	85	0
117	478294	86	0
117	483873	87	0
117	489452	88	0
117	495031	89	0
117	500610	90	0
117	506189	91	0
117	511768	92	0
117	517347	93	0
117	522926	94	0
117	528505	95	0
117	534084	96	0
117	539663	97	0
117	545242	98	0
117	550821	99	0
117	556400	100	0
118	4890	2	6
118	10469	3	6
118	16048	4	6
118	21627	5	6
118	27206	6	6
118	32785	7	6
118	38364	8	6
118	43943	9	6
118	49524	10	6
118	55249	11	6
118	60898	12	6
118	66547	13	6
118	72196	14	6
118	77845	15	6
118	83494	16	6
118	89143	17	6
118	94792	18	6
118	100441	19	6
118	106090	20	6
118	111739	21	6
118	117388	22	6
118	123037	23	6
118	128686	24	6
118	134335	25	6
118	139984	26	6
118	145633	27	6
118	151282	28	6
118	156931	29	6
118	162580	30	6
118	168229	31	6
118	173878	32	6
118	179527	33	6
118	185176	34	6
118	190825	35	6
118	196474	36	6
118	202123	37	6
118	207772	38	6
118	213421	39	6
118	219070	40	6
118	224719	41	6
118	230368	42	6
118	236108	43	6
118	241747	44	6
118	247386	45	6
118	253025	46	6
118	258664	47	6
118	264303	48	6
118	270045	49	6
118	275674	50	6
118	281303	51	6
118	286932	52	6
118	292561	53	6
118	298282	54	6
118	303901	55	6
118	309520	56	6
118	315139	57	6
118	320758	58	6
118	326467	59	6
118	332076	60	6
118	337685	61	6
118	343294	62	6
118	348903	63	6
118	354599	64	6
118	360198	65	6
118	365797	66	6
118	371396	67	6
118	377087	68	6
118	382676	69	6
118	388265	70	6
118	393854	71	6
118	399443	72	6
118	405768	73	6
118	411347	74	6
118	416926	75	6
118	422505	76	6
118	428084	77	6
118	433663	78	6
118	439242	79	6
118	444821	80	6
118	450400	81	6
118	455979	82	6
118	461558	83	6
118	467137	84	6
118	472716	85	6
118	478295	86	6
118	483874	87	6
118	489453	88	6
118	495032	89	6
118	500611	90	6
118	506190	91	6
118	511769	92	6
118	517348	93	6
118	522927	94	6
118	528506	95	6
118	534085	96	6
118	539664	97	6
118	545243	98	6
118	550822	99	6
118	556401	100	6
119	4890	2	0.021463516914
119	10469	3	0.024964796484
119	16048	4	0.024977796554
119	21627	5	0.024964796594
119	27206	6	0.024977796621
119	32785	7	0.024964796651
119	38364	8	0.02496479666
119	43943	9	0.024977796669
119	49524	10	0.024964796677
119	55249	11	0.025022754101
119	60898	12	0.024964759871
119	66547	13	0.024977666328
119	72196	14	0.024964514628
119	77845	15	0.024977313571
119	83494	16	0.024964072924
119	89143	17	0.024963802064
119	94792	18	0.024976509564
119	100441	19	0.024976202999
119	106090	20	0.024962888938
119	111739	21	0.0249755729
119	117388	22	0.024962259464
119	123037	23	0.024974952294
119	128686	24	0.024961654271
119	134335	25	0.024974367591
119	139984	26	0.024974093831
119	145633	27	0.024973834062
119	151282	28	0.024960588944
119	156931	29	0.024973358793
119	162580	30	0.024973143615
119	168229	31	0.024972943231
119	173878	32	0.02495975727
119	179527	33	0.024972585219
119	185176	34	0.024972426516
119	190825	35	0.024972280478
119	196474	36	0.024972146418
119	202123	37	0.024959023619
119	207772	38	0.024971911362
119	213421	39	0.024971808914
119	219070	40	0.024971715597
119	224719	41	0.024971630706
119	230368	42	0.024971553607
119	236108	43	0.025075390947
119	241747	44	0.024971420328
119	247386	45	0.024971363015
119	253025	46	0.024971311211
119	258664	47	0.024971264438
119	264303	48	0.024971222258
119	270045	49	0.025075091115
119	275674	50	0.024971150021
119	281303	51	0.024971119235
119	286932	52	0.024971091565
119	292561	53	0.024971066713
119	298282	54	0.02508776531
119	303901	55	0.024958024412
119	309520	56	0.024971006484
119	315139	57	0.024970990429
119	320758	58	0.024970976058
119	326467	59	0.025087590836
119	332076	60	0.024970951708
119	337685	61	0.024970941435
119	343294	62	0.024970932264
119	348903	63	0.024970924084
119	354599	64	0.025074823406
119	360198	65	0.024970910259
119	365797	66	0.024970904459
119	371396	67	0.02497089928
119	377087	68	0.025107894684
119	382676	69	0.024970890581
119	388265	70	0.02497088693
119	393854	71	0.024970883681
119	399443	72	0.024970880804
119	405768	73	0.025896864611
119	411347	74	0.024970704633
119	416926	75	0.024970663612
119	422505	76	0.024970622249
119	428084	77	0.024970519082
119	433663	78	0.024970340765
119	439242	79	0.024970030113
119	444821	80	0.024969689576
119	450400	81	0.024969355463
119	455979	82	0.024969037845
119	461558	83	0.024968737945
119	467137	84	0.024968486467
119	472716	85	0.024981192917
119	478295	86	0.024967933998
119	483874	87	0.024967748033
119	489453	88	0.02496760508
119	495032	89	0.024967526137
119	500611	90	0.024967462496
119	506190	91	0.024980394153
119	511769	92	0.024967319209
119	517348	93	0.024967239823
119	522927	94	0.024967157406
119	528506	95	0.024967072427
119	534085	96	0.024979985032
119	539664	97	0.024966895295
119	545243	98	0.02496680329
119	550822	99	0.02496670907
119	556401	100	0.024979612608
120	4890	2	0
120	10469	3	0
120	16048	4	0
120	21627	5	0
120	27206	6	0
120	32785	7	0
120	38364	8	0
120	43943	9	0
120	49524	10	0
120	55249	11	0
120	60898	12	0
120	66547	13	0
120	72196	14	0
120	77845	15	0
120	83494	16	0
120	89143	17	0
120	94792	18	0
120	100441	19	0
120	106090	20	0
120	111739	21	0
120	117388	22	0
120	123037	23	0
120	128686	24	0
120	134335	25	0
120	139984	26	0
120	145633	27	0
120	151282	28	0
120	156931	29	0
120	162580	30	0
120	168229	31	0
120	173878	32	0
120	179527	33	0
120	185176	34	0
120	190825	35	0
120	196474	36	0
120	202123	37	0
120	207772	38	0
120	213421	39	0
120	219070	40	0
120	224719	41	0
120	230368	42	0
120	236108	43	0
120	241747	44	0
120	247386	45	0
120	253025	46	0
120	258664	47	0
120	264303	48	0
120	270045	49	0
120	275674	50	0
120	281303	51	0
120	286932	52	0
120	292561	53	0
120	298282	54	0
120	303901	55	0
120	309520	56	0
120	315139	57	0
120	320758	58	0
120	326467	59	0
120	332076	60	0
120	337685	61	0
120	343294	62	0
120	348903	63	0
120	354599	64	0
120	360198	65	0
120	365797	66	0
120	371396	67	0
120	377087	68	0
120	382676	69	0
120	388265	70	0
120	393854	71	0
120	399443	72	0
120	405768	73	0
120	411347	74	0
120	416926	75	0
120	422505	76	0
120	428084	77	0
120	433663	78	0
120	439242	79	0
120	444821	80	0
120	450400	81	0
120	455979	82	0
120	461558	83	0
120	467137	84	0
120	472716	85	0
120	478295	86	0
120	483874	87	0
120	489453	88	0
120	495032	89	0
120	500611	90	0
120	506190	91	0
120	511769	92	0
120	517348	93	0
120	522927	94	0
120	528506	95	0
120	534085	96	0
120	539664	97	0
120	545243	98	0
120	550822	99	0
120	556401	100	0
121	4891	2	7
121	10470	3	7
121	16049	4	7
121	21628	5	7
121	27207	6	7
121	32786	7	7
121	38365	8	7
121	43944	9	7
121	49525	10	7
121	55250	11	7
121	60899	12	7
121	66548	13	7
121	72197	14	7
121	77846	15	7
121	83495	16	7
121	89144	17	7
121	94793	18	7
121	100442	19	7
121	106091	20	7
121	111740	21	7
121	117389	22	7
121	123038	23	7
121	128687	24	7
121	134336	25	7
121	139985	26	7
121	145634	27	7
121	151283	28	7
121	156932	29	7
121	162581	30	7
121	168230	31	7
121	173879	32	7
121	179528	33	7
121	185177	34	7
121	190826	35	7
121	196475	36	7
121	202124	37	7
121	207773	38	7
121	213422	39	7
121	219071	40	7
121	224720	41	7
121	230369	42	7
121	236109	43	7
121	241748	44	7
121	247387	45	7
121	253026	46	7
121	258665	47	7
121	264304	48	7
121	270046	49	7
121	275675	50	7
121	281304	51	7
121	286933	52	7
121	292562	53	7
121	298283	54	7
121	303902	55	7
121	309521	56	7
121	315140	57	7
121	320759	58	7
121	326468	59	7
121	332077	60	7
121	337686	61	7
121	343295	62	7
121	348904	63	7
121	354600	64	7
121	360199	65	7
121	365798	66	7
121	371397	67	7
121	377088	68	7
121	382677	69	7
121	388266	70	7
121	393855	71	7
121	399444	72	7
121	405769	73	7
121	411348	74	7
121	416927	75	7
121	422506	76	7
121	428085	77	7
121	433664	78	7
121	439243	79	7
121	444822	80	7
121	450401	81	7
121	455980	82	7
121	461559	83	7
121	467138	84	7
121	472717	85	7
121	478296	86	7
121	483875	87	7
121	489454	88	7
121	495033	89	7
121	500612	90	7
121	506191	91	7
121	511770	92	7
121	517349	93	7
121	522928	94	7
121	528507	95	7
121	534086	96	7
121	539665	97	7
121	545244	98	7
121	550823	99	7
121	556402	100	7
122	4891	2	0.0214634969
122	10470	3	0.024964796484
122	16049	4	0.024977796554
122	21628	5	0.024964796594
122	27207	6	0.024977796621
122	32786	7	0.024964796651
122	38365	8	0.02496479666
122	43944	9	0.02497779667
122	49525	10	0.024964796677
122	55250	11	0.025022754093
122	60899	12	0.02496475985
122	66548	13	0.02497766628
122	72197	14	0.024964514539
122	77846	15	0.024977313424
122	83495	16	0.024964072706
122	89144	17	0.024963801765
122	94793	18	0.024976509181
122	100442	19	0.02497620253
122	106091	20	0.024962888384
122	111740	21	0.024975572267
122	117389	22	0.024962258758
122	123038	23	0.024974951524
122	128687	24	0.024961653447
122	134336	25	0.024974366722
122	139985	26	0.024974092928
122	145634	27	0.024973833135
122	151283	28	0.024960588003
122	156932	29	0.024973357846
122	162581	30	0.024973142671
122	168230	31	0.024972942298
122	173879	32	0.024959756353
122	179528	33	0.024972584324
122	185177	34	0.024972425647
122	190826	35	0.02497227964
122	196475	36	0.024972145613
122	202124	37	0.024959022851
122	207773	38	0.024971910629
122	213422	39	0.02497180822
122	219071	40	0.02497171494
122	224720	41	0.024971630088
122	230369	42	0.024971553027
122	236109	43	0.025075390403
122	241748	44	0.02497141982
122	247387	45	0.024971362543
122	253026	46	0.024971310771
122	258665	47	0.024971264031
122	264304	48	0.024971221881
122	270046	49	0.024810998033
122	275675	50	0.024971149701
122	281304	51	0.02497111894
122	286933	52	0.024971091293
122	292562	53	0.024971066464
122	298283	54	0.025087765081
122	303902	55	0.024958024204
122	309521	56	0.024971006293
122	315140	57	0.024970990256
122	320759	58	0.024970975899
122	326468	59	0.025087590692
122	332077	60	0.024970951576
122	337686	61	0.024970941316
122	343295	62	0.024970932156
122	348904	63	0.024970923986
122	354600	64	0.025074823317
122	360199	65	0.024970910178
122	365798	66	0.024970904387
122	371397	67	0.024970899214
122	377088	68	0.025074335647
122	382677	69	0.024970890528
122	388266	70	0.024970886882
122	393855	71	0.024970883638
122	399444	72	0.024970880765
122	405769	73	0.025930511634
122	411348	74	0.024970700272
122	416927	75	0.024970657567
122	422506	76	0.024970618586
122	428085	77	0.024970523616
122	433664	78	0.024970367672
122	439243	79	0.0249700506
122	444822	80	0.024969712061
122	450401	81	0.024969371696
122	455980	82	0.024969047226
122	461559	83	0.024968742076
122	467138	84	0.024968494105
122	472717	85	0.024981185319
122	478296	86	0.024967933691
122	483875	87	0.024967745177
122	489454	88	0.024967602098
122	495033	89	0.024967523363
122	500612	90	0.024967459984
122	506191	91	0.024980391874
122	511770	92	0.024967317132
122	517349	93	0.024967237929
122	522928	94	0.024967155682
122	528507	95	0.024967070859
122	534086	96	0.024979983608
122	539665	97	0.024966894003
122	545244	98	0.024966802117
122	550823	99	0.024966708007
122	556402	100	0.024979611646
123	4891	2	0
123	10470	3	0
123	16049	4	0
123	21628	5	0
123	27207	6	0
123	32786	7	0
123	38365	8	0
123	43944	9	0
123	49525	10	0
123	55250	11	0
123	60899	12	0
123	66548	13	0
123	72197	14	0
123	77846	15	0
123	83495	16	0
123	89144	17	0
123	94793	18	0
123	100442	19	0
123	106091	20	0
123	111740	21	0
123	117389	22	0
123	123038	23	0
123	128687	24	0
123	134336	25	0
123	139985	26	0
123	145634	27	0
123	151283	28	0
123	156932	29	0
123	162581	30	0
123	168230	31	0
123	173879	32	0
123	179528	33	0
123	185177	34	0
123	190826	35	0
123	196475	36	0
123	202124	37	0
123	207773	38	0
123	213422	39	0
123	219071	40	0
123	224720	41	0
123	230369	42	0
123	236109	43	0
123	241748	44	0
123	247387	45	0
123	253026	46	0
123	258665	47	0
123	264304	48	0
123	270046	49	0
123	275675	50	0
123	281304	51	0
123	286933	52	0
123	292562	53	0
123	298283	54	0
123	303902	55	0
123	309521	56	0
123	315140	57	0
123	320759	58	0
123	326468	59	0
123	332077	60	0
123	337686	61	0
123	343295	62	0
123	348904	63	0
123	354600	64	0
123	360199	65	0
123	365798	66	0
123	371397	67	0
123	377088	68	0
123	382677	69	0
123	388266	70	0
123	393855	71	0
123	399444	72	0
123	405769	73	0
123	411348	74	0
123	416927	75	0
123	422506	76	0
123	428085	77	0
123	433664	78	0
123	439243	79	0
123	444822	80	0
123	450401	81	0
123	455980	82	0
123	461559	83	0
123	467138	84	0
123	472717	85	0
123	478296	86	0
123	483875	87	0
123	489454	88	0
123	495033	89	0
123	500612	90	0
123	506191	91	0
123	511770	92	0
123	517349	93	0
123	522928	94	0
123	528507	95	0
123	534086	96	0
123	539665	97	0
123	545244	98	0
123	550823	99	0
123	556402	100	0
124	4892	2	8
124	10471	3	8
124	16050	4	8
124	21629	5	8
124	27208	6	8
124	32787	7	8
124	38366	8	8
124	43945	9	8
124	49526	10	8
124	55251	11	8
124	60900	12	8
124	66549	13	8
124	72198	14	8
124	77847	15	8
124	83496	16	8
124	89145	17	8
124	94794	18	8
124	100443	19	8
124	106092	20	8
124	111741	21	8
124	117390	22	8
124	123039	23	8
124	128688	24	8
124	134337	25	8
124	139986	26	8
124	145635	27	8
124	151284	28	8
124	156933	29	8
124	162582	30	8
124	168231	31	8
124	173880	32	8
124	179529	33	8
124	185178	34	8
124	190827	35	8
124	196476	36	8
124	202125	37	8
124	207774	38	8
124	213423	39	8
124	219072	40	8
124	224721	41	8
124	230370	42	8
124	236110	43	8
124	241749	44	8
124	247388	45	8
124	253027	46	8
124	258666	47	8
124	264305	48	8
124	270047	49	8
124	275676	50	8
124	281305	51	8
124	286934	52	8
124	292563	53	8
124	298284	54	8
124	303903	55	8
124	309522	56	8
124	315141	57	8
124	320760	58	8
124	326469	59	8
124	332078	60	8
124	337687	61	8
124	343296	62	8
124	348905	63	8
124	354601	64	8
124	360200	65	8
124	365799	66	8
124	371398	67	8
124	377089	68	8
124	382678	69	8
124	388267	70	8
124	393856	71	8
124	399445	72	8
124	405770	73	8
124	411349	74	8
124	416928	75	8
124	422507	76	8
124	428086	77	8
124	433665	78	8
124	439244	79	8
124	444823	80	8
124	450402	81	8
124	455981	82	8
124	461560	83	8
124	467139	84	8
124	472718	85	8
124	478297	86	8
124	483876	87	8
124	489455	88	8
124	495034	89	8
124	500613	90	8
124	506192	91	8
124	511771	92	8
124	517350	93	8
124	522929	94	8
124	528508	95	8
124	534087	96	8
124	539666	97	8
124	545245	98	8
124	550824	99	8
124	556403	100	8
125	4892	2	0.002817
125	10471	3	0.00313
125	16050	4	0.00313
125	21629	5	0.00313
125	27208	6	0.00313
125	32787	7	0.00313
125	38366	8	0.00313
125	43945	9	0.00313
125	49526	10	0.00313
125	55251	11	0.003179
125	60900	12	0.00313
125	66549	13	0.00313
125	72198	14	0.00313
125	77847	15	0.00313
125	83496	16	0.00313
125	89145	17	0.00313
125	94794	18	0.00313
125	100443	19	0.00313
125	106092	20	0.00313
125	111741	21	0.00313
125	117390	22	0.00313
125	123039	23	0.00313
125	128688	24	0.00313
125	134337	25	0.00313
125	139986	26	0.00313
125	145635	27	0.00313
125	151284	28	0.00313
125	156933	29	0.00313
125	162582	30	0.00313
125	168231	31	0.00313
125	173880	32	0.00313
125	179529	33	0.00313
125	185178	34	0.00313
125	190827	35	0.00313
125	196476	36	0.00313
125	202125	37	0.00313
125	207774	38	0.00313
125	213423	39	0.00313
125	219072	40	0.00313
125	224721	41	0.00313
125	230370	42	0.00313
125	236110	43	0.00313
125	241749	44	0.00313
125	247388	45	0.00313
125	253027	46	0.00313
125	258666	47	0.00313
125	264305	48	0.00313
125	270047	49	0.00313
125	275676	50	0.00313
125	281305	51	0.00313
125	286934	52	0.00313
125	292563	53	0.00313
125	298284	54	0.00313
125	303903	55	0.00313
125	309522	56	0.00313
125	315141	57	0.00313
125	320760	58	0.00313
125	326469	59	0.00313
125	332078	60	0.00313
125	337687	61	0.00313
125	343296	62	0.00313
125	348905	63	0.00313
125	354601	64	0.00313
125	360200	65	0.00313
125	365799	66	0.00313
125	371398	67	0.00313
125	377089	68	0.00313
125	382678	69	0.00313
125	388267	70	0.00313
125	393856	71	0.00313
125	399445	72	0.00313
125	405770	73	0.00313
125	411349	74	0.00313
125	416928	75	0.00313
125	422507	76	0.00313
125	428086	77	0.00313
125	433665	78	0.00313
125	439244	79	0.00313
125	444823	80	0.00313
125	450402	81	0.00313
125	455981	82	0.00313
125	461560	83	0.00313
125	467139	84	0.00313
125	472718	85	0.00313
125	478297	86	0.00313
125	483876	87	0.00313
125	489455	88	0.00313
125	495034	89	0.00313
125	500613	90	0.00313
125	506192	91	0.00313
125	511771	92	0.00313
125	517350	93	0.00313
125	522929	94	0.00313
125	528508	95	0.00313
125	534087	96	0.00313
125	539666	97	0.00313
125	545245	98	0.00313
125	550824	99	0.00313
125	556403	100	0.00313
126	4892	2	0
126	10471	3	0
126	16050	4	0
126	21629	5	0
126	27208	6	0
126	32787	7	0
126	38366	8	0
126	43945	9	0
126	49526	10	0
126	55251	11	0
126	60900	12	0
126	66549	13	0
126	72198	14	0
126	77847	15	0
126	83496	16	0
126	89145	17	0
126	94794	18	0
126	100443	19	0
126	106092	20	0
126	111741	21	0
126	117390	22	0
126	123039	23	0
126	128688	24	0
126	134337	25	0
126	139986	26	0
126	145635	27	0
126	151284	28	0
126	156933	29	0
126	162582	30	0
126	168231	31	0
126	173880	32	0
126	179529	33	0
126	185178	34	0
126	190827	35	0
126	196476	36	0
126	202125	37	0
126	207774	38	0
126	213423	39	0
126	219072	40	0
126	224721	41	0
126	230370	42	0
126	236110	43	0
126	241749	44	0
126	247388	45	0
126	253027	46	0
126	258666	47	0
126	264305	48	0
126	270047	49	0
126	275676	50	0
126	281305	51	0
126	286934	52	0
126	292563	53	0
126	298284	54	0
126	303903	55	0
126	309522	56	0
126	315141	57	0
126	320760	58	0
126	326469	59	0
126	332078	60	0
126	337687	61	0
126	343296	62	0
126	348905	63	0
126	354601	64	0
126	360200	65	0
126	365799	66	0
126	371398	67	0
126	377089	68	0
126	382678	69	0
126	388267	70	0
126	393856	71	0
126	399445	72	0
126	405770	73	0
126	411349	74	0
126	416928	75	0
126	422507	76	0
126	428086	77	0
126	433665	78	0
126	439244	79	0
126	444823	80	0
126	450402	81	0
126	455981	82	0
126	461560	83	0
126	467139	84	0
126	472718	85	0
126	478297	86	0
126	483876	87	0
126	489455	88	0
126	495034	89	0
126	500613	90	0
126	506192	91	0
126	511771	92	0
126	517350	93	0
126	522929	94	0
126	528508	95	0
126	534087	96	0
126	539666	97	0
126	545245	98	0
126	550824	99	0
126	556403	100	0

