version 3
run BreakRanksNoGui-593-20240711-12:42:36-287157
attr configname BreakRanksNoGui
attr datetime 20240711-12:42:36
attr datetimef 20240711-124236
attr experiment BreakRanksNoGui
attr inifile omnetpp.ini
attr iterationvars "$nCars=9, $platoonSize=8, $nLanes=1, $ploegH=0.5, $controller=1, $headway=0.1, $leaderHeadway=1.2, $leaderSpeed=110, $breakRanksSafetyDistance=10, $minSpeed=100, $maxSpeed=120, $beaconInterval=0.1, $priority=4, $packetSize=200, $sController=\"CACC\", $0=2, $1=0"
attr iterationvarsd nCars=9/platoonSize=8/nLanes=1/ploegH=0.5/controller=1/headway=0.1/leaderHeadway=1.2/leaderSpeed=110/breakRanksSafetyDistance=10/minSpeed=100/maxSpeed=120/beaconInterval=0.1/priority=4/packetSize=200/sController=CACC/2/0
attr iterationvarsf nCars=9,platoonSize=8,nLanes=1,ploegH=0.5,controller=1,headway=0.1,leaderHeadway=1.2,leaderSpeed=110,breakRanksSafetyDistance=10,minSpeed=100,maxSpeed=120,beaconInterval=0.1,priority=4,packetSize=200,sController=CACC,2,0-
attr measurement "$nCars=9, $platoonSize=8, $nLanes=1, $ploegH=0.5, $controller=1, $headway=0.1, $leaderHeadway=1.2, $leaderSpeed=110, $breakRanksSafetyDistance=10, $minSpeed=100, $maxSpeed=120, $beaconInterval=0.1, $priority=4, $packetSize=200, $sController=\"CACC\", $0=2, $1=0"
attr network Highway
attr processid 287157
attr repetition 3
attr replication #3
attr resultdir results
attr runnumber 593
attr seedset 3
itervar beaconInterval 0.1
itervar breakRanksSafetyDistance 10
itervar controller 1
itervar headway 0.1
itervar leaderHeadway 1.2
itervar leaderSpeed 110
itervar maxSpeed 120
itervar minSpeed 100
itervar nCars 9
itervar nLanes 1
itervar packetSize 200
itervar platoonSize 8
itervar ploegH 0.5
itervar priority 4
itervar sController "\"CACC\""
config image-path ../../../veins/images
config repeat 10
config extends BreakRanks
config *.manager.command "\"sumo\""
config *.manager.ignoreGuiCommands true
config output-vector-file "results/BreakRanks_1_0.1_110_10_8 /result_3.vec"
config output-scalar-file "results/BreakRanks_1_0.1_110_10_8 /result_3.sca"
config extends Platooning
config *.node[*].scenario_type "\"BreakRanksScenario\""
config *.manager.command "\"sumo-gui\""
config *.node[*].scenario_type "\"SimpleScenario\""
config cmdenv-express-mode true
config cmdenv-autoflush true
config cmdenv-status-frequency 15s
config num-rngs 6
config network Highway
config debug-on-errors true
config print-undisposed true
config *.playgroundSizeX 65000m
config *.playgroundSizeY 25000m
config *.playgroundSizeZ 50m
config sim-time-limit "100 s"
config *.annotations.draw false
config *.obstacles.debug false
config *.world.useTorus false
config *.world.use2D false
config *.manager.updateInterval 0.01s
config *.manager.host "\"localhost\""
config *.manager.moduleType "\"org.car2x.plexe.PlatoonCar\""
config *.manager.moduleName "\"node\""
config *.manager.moduleDisplayString "\"\""
config *.manager.autoShutdown true
config *.manager.margin 25
config *.connectionManager.sendDirect true
config *.connectionManager.maxInterfDist 2600m
config *.connectionManager.drawMaxIntfDist false
config *.**.nic.mac1609_4.useServiceChannel false
config *.**.nic.mac1609_4.txPower 100mW
config *.**.nic.mac1609_4.bitrate 6Mbps
config *.**.nic.mac1609_4.useAcks true
config *.**.nic.mac1609_4.ackErrorRate 0.0
config *.**.nic.mac1609_4.frameErrorRate 0.0
config *.**.nic.phy80211p.minPowerLevel -94dBm
config *.**.nic.phy80211p.maxTXPower 100mW
config *.**.nic.phy80211p.useNoiseFloor true
config *.**.nic.phy80211p.noiseFloor -95dBm
config *.**.nic.phy80211p.decider "xmldoc(\"config.xml\")"
config *.**.nic.phy80211p.analogueModels "xmldoc(\"config.xml\")"
config *.**.nic.phy80211p.usePropagationDelay true
config *.node[*].mobility.x 0
config *.node[*].mobility.y 0
config *.node[*].mobility.z 1.895
config seed-set 3
config **.seed 3
config *.node[*].prot.rng-0 2
config *.node[*].appl.rng-0 3
config *.node[*].scenario.rng-0 4
config **.traffic.rng-0 5
config *.manager.configFile "\"./sumocfg/freeway.sumo.cfg\""
config *.manager.launchConfig "xmldoc(\"./sumocfg/freeway.launchd.xml\")"
config **.numberOfCars 9
config **.numberOfCarsPerPlatoon 8
config **.numberOfLanes 1
config *.node[*].helper_type "\"PositionHelper\""
config *.node[*].scenario.caccC1 0.5
config *.node[*].scenario.caccXi 1
config *.node[*].scenario.caccOmegaN "0.2 Hz"
config *.node[*].scenario.caccSpacing "2 m"
config *.node[*].scenario.engineTau "0.5 s"
config *.node[*].scenario.ploegH 0.5s
config *.node[*].scenario.ploegKp 0.2
config *.node[*].scenario.ploegKd 0.7
config *.node[*].scenario.useRealisticEngine false
config *.node[*].scenario.useControllerAcceleration true
config *.node[*].scenario.nLanes 1
config **.numericController 1
config **.headway 0.1s
config *.node[*].scenario.accHeadway 0.1s
config *.node[*].scenario.leaderHeadway 1.2s
config *.node[*].scenario.leaderSpeed 110kmph
config *.node[*].appl_type "\"SimplePlatooningApp\""
config *.node[*].appl.*.scalar-recording true
config *.node[*].appl.*.vector-recording true
config *.node[0].appl.breakRanksSafetyDistance 10m
config *.node[*].appl.minSpeed 100kmph
config *.node[*].appl.maxSpeed 120kmph
config *.node[*].protocol_type "\"SimplePlatooningBeaconing\""
config *.node[*].prot.*.scalar-recording true
config *.node[*].prot.*.vector-recording true
config *.node[*].prot.beaconingInterval 0.1s
config *.node[*].prot.priority 4
config *.node[*].prot.packetSize 200
config **.traffic_type "\"PlatoonsTrafficManager\""
config **.traffic.platoonInsertTime "1 s"
config **.traffic.platoonInsertSpeed 110kmph
config **.traffic.nCars 9
config **.traffic.platoonSize 8
config **.traffic.nLanes 1
config **.traffic.platooningVType "\"vtypeauto\""
config **.traffic.controller "\"CACC\""
config **.traffic.platoonInsertDistance 2m
config **.traffic.platoonInsertHeadway 0s
config **.traffic.platoonLeaderHeadway 1.2s
config **.scalar-recording false
config **.vector-recording false

vector 0 Highway.node[0].appl distance ETV
vector 1 Highway.node[0].appl relativeSpeed ETV
vector 2 Highway.node[0].appl nodeId ETV
vector 3 Highway.node[0].appl acceleration ETV
vector 4 Highway.node[0].appl controllerAcceleration ETV
vector 5 Highway.node[0].appl speed ETV
vector 6 Highway.node[0].appl posx ETV
vector 7 Highway.node[0].appl posy ETV
vector 8 Highway.node[1].appl distance ETV
vector 9 Highway.node[1].appl relativeSpeed ETV
vector 10 Highway.node[1].appl nodeId ETV
vector 11 Highway.node[1].appl acceleration ETV
vector 12 Highway.node[1].appl controllerAcceleration ETV
vector 13 Highway.node[1].appl speed ETV
vector 14 Highway.node[1].appl posx ETV
vector 15 Highway.node[1].appl posy ETV
vector 16 Highway.node[2].appl distance ETV
vector 17 Highway.node[2].appl relativeSpeed ETV
vector 18 Highway.node[2].appl nodeId ETV
vector 19 Highway.node[2].appl acceleration ETV
vector 20 Highway.node[2].appl controllerAcceleration ETV
vector 21 Highway.node[2].appl speed ETV
vector 22 Highway.node[2].appl posx ETV
vector 23 Highway.node[2].appl posy ETV
vector 24 Highway.node[3].appl distance ETV
vector 25 Highway.node[3].appl relativeSpeed ETV
vector 26 Highway.node[3].appl nodeId ETV
vector 27 Highway.node[3].appl acceleration ETV
vector 28 Highway.node[3].appl controllerAcceleration ETV
vector 29 Highway.node[3].appl speed ETV
vector 30 Highway.node[3].appl posx ETV
vector 31 Highway.node[3].appl posy ETV
vector 32 Highway.node[4].appl distance ETV
vector 33 Highway.node[4].appl relativeSpeed ETV
vector 34 Highway.node[4].appl nodeId ETV
vector 35 Highway.node[4].appl acceleration ETV
vector 36 Highway.node[4].appl controllerAcceleration ETV
vector 37 Highway.node[4].appl speed ETV
vector 38 Highway.node[4].appl posx ETV
vector 39 Highway.node[4].appl posy ETV
vector 40 Highway.node[5].appl distance ETV
vector 41 Highway.node[5].appl relativeSpeed ETV
vector 42 Highway.node[5].appl nodeId ETV
vector 43 Highway.node[5].appl acceleration ETV
vector 44 Highway.node[5].appl controllerAcceleration ETV
vector 45 Highway.node[5].appl speed ETV
vector 46 Highway.node[5].appl posx ETV
vector 47 Highway.node[5].appl posy ETV
vector 48 Highway.node[6].appl distance ETV
vector 49 Highway.node[6].appl relativeSpeed ETV
vector 50 Highway.node[6].appl nodeId ETV
vector 51 Highway.node[6].appl acceleration ETV
vector 52 Highway.node[6].appl controllerAcceleration ETV
vector 53 Highway.node[6].appl speed ETV
vector 54 Highway.node[6].appl posx ETV
vector 55 Highway.node[6].appl posy ETV
vector 56 Highway.node[7].appl distance ETV
vector 57 Highway.node[7].appl relativeSpeed ETV
vector 58 Highway.node[7].appl nodeId ETV
vector 59 Highway.node[7].appl acceleration ETV
vector 60 Highway.node[7].appl controllerAcceleration ETV
vector 61 Highway.node[7].appl speed ETV
vector 62 Highway.node[7].appl posx ETV
vector 63 Highway.node[7].appl posy ETV
vector 64 Highway.node[8].appl distance ETV
vector 65 Highway.node[8].appl relativeSpeed ETV
vector 66 Highway.node[8].appl nodeId ETV
vector 67 Highway.node[8].appl acceleration ETV
vector 68 Highway.node[8].appl controllerAcceleration ETV
vector 69 Highway.node[8].appl speed ETV
vector 70 Highway.node[8].appl posx ETV
vector 71 Highway.node[8].appl posy ETV
vector 72 Highway.node[1].prot leaderDelay ETV
vector 73 Highway.node[1].prot leaderDelayId ETV
vector 74 Highway.node[1].prot frontDelay ETV
vector 75 Highway.node[1].prot frontDelayId ETV
vector 76 Highway.node[2].prot leaderDelay ETV
vector 77 Highway.node[2].prot leaderDelayId ETV
vector 78 Highway.node[3].prot leaderDelay ETV
vector 79 Highway.node[3].prot leaderDelayId ETV
vector 80 Highway.node[4].prot leaderDelay ETV
vector 81 Highway.node[4].prot leaderDelayId ETV
vector 82 Highway.node[5].prot leaderDelay ETV
vector 83 Highway.node[5].prot leaderDelayId ETV
vector 84 Highway.node[6].prot leaderDelay ETV
vector 85 Highway.node[6].prot leaderDelayId ETV
vector 86 Highway.node[7].prot leaderDelay ETV
vector 87 Highway.node[7].prot leaderDelayId ETV
vector 88 Highway.node[7].prot frontDelay ETV
vector 89 Highway.node[7].prot frontDelayId ETV
vector 90 Highway.node[2].prot frontDelay ETV
vector 91 Highway.node[2].prot frontDelayId ETV
vector 92 Highway.node[5].prot frontDelay ETV
vector 93 Highway.node[5].prot frontDelayId ETV
vector 94 Highway.node[3].prot frontDelay ETV
vector 95 Highway.node[3].prot frontDelayId ETV
vector 96 Highway.node[6].prot frontDelay ETV
vector 97 Highway.node[6].prot frontDelayId ETV
vector 98 Highway.node[4].prot frontDelay ETV
vector 99 Highway.node[4].prot frontDelayId ETV
vector 100 Highway.node[0].prot nodeId ETV
vector 101 Highway.node[0].prot busyTime ETV
vector 102 Highway.node[0].prot collisions ETV
vector 103 Highway.node[1].prot nodeId ETV
vector 104 Highway.node[1].prot busyTime ETV
vector 105 Highway.node[1].prot collisions ETV
vector 106 Highway.node[2].prot nodeId ETV
vector 107 Highway.node[2].prot busyTime ETV
vector 108 Highway.node[2].prot collisions ETV
vector 109 Highway.node[3].prot nodeId ETV
vector 110 Highway.node[3].prot busyTime ETV
vector 111 Highway.node[3].prot collisions ETV
vector 112 Highway.node[4].prot nodeId ETV
vector 113 Highway.node[4].prot busyTime ETV
vector 114 Highway.node[4].prot collisions ETV
vector 115 Highway.node[5].prot nodeId ETV
vector 116 Highway.node[5].prot busyTime ETV
vector 117 Highway.node[5].prot collisions ETV
vector 118 Highway.node[6].prot nodeId ETV
vector 119 Highway.node[6].prot busyTime ETV
vector 120 Highway.node[6].prot collisions ETV
vector 121 Highway.node[7].prot nodeId ETV
vector 122 Highway.node[7].prot busyTime ETV
vector 123 Highway.node[7].prot collisions ETV
vector 124 Highway.node[8].prot nodeId ETV
vector 125 Highway.node[8].prot busyTime ETV
vector 126 Highway.node[8].prot collisions ETV
0	113	1.11	9311.83
0	670	1.21	9311.83
0	1227	1.31	9311.83
0	1784	1.41	9311.83
0	2341	1.51	9311.83
0	2898	1.61	9311.83
0	3455	1.71	9311.83
0	4012	1.81	9311.83
0	4569	1.91	-1
0	5135	2.01	-1
0	5692	2.11	-1
0	6249	2.21	-1
0	6806	2.31	-1
0	7363	2.41	-1
0	7920	2.51	-1
0	8477	2.61	-1
0	9034	2.71	-1
0	9591	2.81	-1
0	10148	2.91	-1
0	10714	3.01	-1
0	11271	3.11	-1
0	11828	3.21	-1
0	12385	3.31	-1
0	12942	3.41	-1
0	13499	3.51	-1
0	14056	3.61	-1
0	14613	3.71	-1
0	15170	3.81	-1
0	15727	3.91	-1
0	16293	4.01	-1
0	16850	4.11	-1
0	17407	4.21	-1
0	17964	4.31	-1
0	18521	4.41	-1
0	19078	4.51	-1
0	19635	4.61	-1
0	20192	4.71	-1
0	20749	4.81	-1
0	21306	4.91	-1
0	21872	5.01	-1
0	22429	5.11	-1
0	22986	5.21	-1
0	23543	5.31	-1
0	24100	5.41	-1
0	24657	5.51	-1
0	25214	5.61	-1
0	25771	5.71	-1
0	26328	5.81	-1
0	26885	5.91	-1
0	27451	6.01	-1
0	28008	6.11	-1
0	28565	6.21	-1
0	29122	6.31	-1
0	29679	6.41	-1
0	30236	6.51	-1
0	30793	6.61	-1
0	31350	6.71	-1
0	31907	6.81	-1
0	32464	6.91	-1
0	33030	7.01	-1
0	33587	7.11	-1
0	34144	7.21	-1
0	34701	7.31	-1
0	35258	7.41	-1
0	35815	7.51	-1
0	36372	7.61	-1
0	36929	7.71	-1
0	37486	7.81	-1
0	38043	7.91	-1
0	38609	8.01	-1
0	39166	8.11	-1
0	39723	8.21	-1
0	40280	8.31	-1
0	40837	8.41	-1
0	41394	8.51	-1
0	41951	8.61	-1
0	42508	8.71	-1
0	43065	8.81	-1
0	43622	8.91	-1
0	44188	9.01	-1
0	44745	9.11	-1
0	45302	9.21	-1
0	45859	9.31	-1
0	46416	9.41	-1
0	46973	9.51	-1
0	47530	9.61	-1
0	48087	9.71	-1
0	48644	9.81	-1
0	49201	9.91	-1
0	49852	10.01	-1
0	50416	10.11	-1
0	50980	10.21	-1
0	51544	10.31	-1
0	52108	10.41	-1
0	52672	10.51	-1
0	53236	10.61	-1
0	53800	10.71	-1
0	54364	10.81	-1
0	54928	10.91	-1
0	55501	11.01	-1
0	56065	11.11	-1
0	56629	11.21	-1
0	57193	11.31	-1
0	57757	11.41	-1
0	58321	11.51	-1
0	58885	11.61	-1
0	59449	11.71	-1
0	60013	11.81	-1
0	60577	11.91	-1
0	61150	12.01	-1
0	61714	12.11	-1
0	62278	12.21	-1
0	62842	12.31	-1
0	63406	12.41	-1
0	63970	12.51	-1
0	64534	12.61	-1
0	65098	12.71	-1
0	65662	12.81	-1
0	66226	12.91	-1
0	66799	13.01	-1
0	67363	13.11	-1
0	67927	13.21	-1
0	68491	13.31	-1
0	69055	13.41	-1
0	69619	13.51	-1
0	70183	13.61	-1
0	70747	13.71	-1
0	71311	13.81	-1
0	71875	13.91	-1
0	72448	14.01	-1
0	73012	14.11	-1
0	73576	14.21	-1
0	74140	14.31	-1
0	74704	14.41	-1
0	75268	14.51	-1
0	75832	14.61	-1
0	76396	14.71	-1
0	76960	14.81	-1
0	77524	14.91	-1
0	78097	15.01	-1
0	78661	15.11	-1
0	79225	15.21	-1
0	79789	15.31	-1
0	80353	15.41	-1
0	80917	15.51	-1
0	81481	15.61	-1
0	82045	15.71	-1
0	82609	15.81	-1
0	83173	15.91	-1
0	83746	16.01	-1
0	84310	16.11	-1
0	84874	16.21	-1
0	85438	16.31	-1
0	86002	16.41	-1
0	86566	16.51	-1
0	87130	16.61	-1
0	87694	16.71	-1
0	88258	16.81	-1
0	88822	16.91	-1
0	89395	17.01	-1
0	89959	17.11	-1
0	90523	17.21	-1
0	91087	17.31	-1
0	91651	17.41	-1
0	92215	17.51	-1
0	92779	17.61	-1
0	93343	17.71	-1
0	93907	17.81	-1
0	94471	17.91	-1
0	95044	18.01	-1
0	95608	18.11	-1
0	96172	18.21	-1
0	96736	18.31	-1
0	97300	18.41	-1
0	97864	18.51	-1
0	98428	18.61	-1
0	98992	18.71	-1
0	99556	18.81	-1
0	100120	18.91	-1
0	100693	19.01	-1
0	101257	19.11	-1
0	101821	19.21	-1
0	102385	19.31	-1
0	102949	19.41	-1
0	103513	19.51	-1
0	104077	19.61	-1
0	104641	19.71	-1
0	105205	19.81	-1
0	105769	19.91	-1
0	106342	20.01	-1
0	106906	20.11	-1
0	107470	20.21	-1
0	108034	20.31	-1
0	108598	20.41	-1
0	109162	20.51	-1
0	109726	20.61	-1
0	110290	20.71	-1
0	110854	20.81	-1
0	111418	20.91	-1
0	111991	21.01	-1
0	112555	21.11	-1
0	113119	21.21	-1
0	113683	21.31	-1
0	114247	21.41	-1
0	114811	21.51	-1
0	115375	21.61	-1
0	115939	21.71	-1
0	116503	21.81	-1
0	117067	21.91	-1
0	117640	22.01	-1
0	118204	22.11	-1
0	118768	22.21	-1
0	119332	22.31	-1
0	119896	22.41	-1
0	120460	22.51	-1
0	121024	22.61	-1
0	121588	22.71	-1
0	122152	22.81	-1
0	122716	22.91	-1
0	123289	23.01	-1
0	123853	23.11	-1
0	124417	23.21	-1
0	124981	23.31	-1
0	125545	23.41	-1
0	126109	23.51	-1
0	126673	23.61	-1
0	127237	23.71	-1
0	127801	23.81	-1
0	128365	23.91	-1
0	128938	24.01	-1
0	129502	24.11	-1
0	130066	24.21	-1
0	130630	24.31	-1
0	131194	24.41	-1
0	131758	24.51	-1
0	132322	24.61	-1
0	132886	24.71	-1
0	133450	24.81	-1
0	134014	24.91	-1
0	134587	25.01	-1
0	135151	25.11	-1
0	135715	25.21	-1
0	136279	25.31	-1
0	136843	25.41	-1
0	137407	25.51	-1
0	137971	25.61	-1
0	138535	25.71	-1
0	139099	25.81	-1
0	139663	25.91	-1
0	140236	26.01	-1
0	140800	26.11	-1
0	141364	26.21	-1
0	141928	26.31	-1
0	142492	26.41	-1
0	143056	26.51	-1
0	143620	26.61	-1
0	144184	26.71	-1
0	144748	26.81	-1
0	145312	26.91	-1
0	145885	27.01	-1
0	146449	27.11	-1
0	147013	27.21	-1
0	147577	27.31	-1
0	148141	27.41	-1
0	148705	27.51	-1
0	149269	27.61	-1
0	149833	27.71	-1
0	150397	27.81	-1
0	150961	27.91	-1
0	151534	28.01	-1
0	152098	28.11	-1
0	152662	28.21	-1
0	153226	28.31	-1
0	153790	28.41	-1
0	154354	28.51	-1
0	154918	28.61	-1
0	155482	28.71	-1
0	156046	28.81	-1
0	156610	28.91	-1
0	157183	29.01	-1
0	157747	29.11	-1
0	158311	29.21	-1
0	158875	29.31	-1
0	159439	29.41	-1
0	160003	29.51	-1
0	160567	29.61	-1
0	161131	29.71	-1
0	161695	29.81	-1
0	162259	29.91	-1
0	162832	30.01	-1
0	163396	30.11	-1
0	163960	30.21	-1
0	164524	30.31	-1
0	165088	30.41	-1
0	165652	30.51	-1
0	166216	30.61	-1
0	166780	30.71	-1
0	167344	30.81	-1
0	167908	30.91	-1
0	168481	31.01	-1
0	169045	31.11	-1
0	169609	31.21	-1
0	170173	31.31	-1
0	170737	31.41	-1
0	171301	31.51	-1
0	171865	31.61	-1
0	172429	31.71	-1
0	172993	31.81	-1
0	173557	31.91	-1
0	174130	32.01	-1
0	174694	32.11	-1
0	175258	32.21	-1
0	175822	32.31	-1
0	176386	32.41	-1
0	176950	32.51	-1
0	177514	32.61	-1
0	178078	32.71	-1
0	178642	32.81	-1
0	179206	32.91	-1
0	179779	33.01	-1
0	180343	33.11	-1
0	180907	33.21	-1
0	181471	33.31	-1
0	182035	33.41	-1
0	182599	33.51	-1
0	183163	33.61	-1
0	183727	33.71	-1
0	184291	33.81	-1
0	184855	33.91	-1
0	185428	34.01	-1
0	185992	34.11	-1
0	186556	34.21	-1
0	187120	34.31	-1
0	187684	34.41	-1
0	188248	34.51	-1
0	188812	34.61	-1
0	189376	34.71	-1
0	189940	34.81	-1
0	190504	34.91	-1
0	191077	35.01	-1
0	191641	35.11	-1
0	192205	35.21	-1
0	192769	35.31	-1
0	193333	35.41	-1
0	193897	35.51	-1
0	194461	35.61	-1
0	195025	35.71	-1
0	195589	35.81	-1
0	196153	35.91	-1
0	196726	36.01	-1
0	197290	36.11	-1
0	197854	36.21	-1
0	198418	36.31	-1
0	198982	36.41	-1
0	199546	36.51	-1
0	200110	36.61	-1
0	200674	36.71	-1
0	201238	36.81	-1
0	201802	36.91	-1
0	202375	37.01	-1
0	202939	37.11	-1
0	203503	37.21	-1
0	204067	37.31	-1
0	204631	37.41	-1
0	205195	37.51	-1
0	205759	37.61	-1
0	206323	37.71	-1
0	206887	37.81	-1
0	207451	37.91	-1
0	208024	38.01	-1
0	208588	38.11	-1
0	209152	38.21	-1
0	209716	38.31	-1
0	210280	38.41	-1
0	210844	38.51	-1
0	211408	38.61	-1
0	211972	38.71	-1
0	212536	38.81	-1
0	213100	38.91	-1
0	213673	39.01	-1
0	214237	39.11	-1
0	214801	39.21	-1
0	215365	39.31	-1
0	215929	39.41	-1
0	216493	39.51	-1
0	217057	39.61	-1
0	217621	39.71	-1
0	218185	39.81	-1
0	218749	39.91	-1
0	219322	40.01	-1
0	219886	40.11	-1
0	220450	40.21	-1
0	221014	40.31	-1
0	221578	40.41	-1
0	222142	40.51	-1
0	222706	40.61	-1
0	223270	40.71	-1
0	223834	40.81	-1
0	224398	40.91	-1
0	224971	41.01	-1
0	225535	41.11	-1
0	226099	41.21	-1
0	226663	41.31	-1
0	227227	41.41	-1
0	227791	41.51	-1
0	228355	41.61	-1
0	228919	41.71	-1
0	229483	41.81	-1
0	230047	41.91	-1
0	230620	42.01	-1
0	231184	42.11	-1
0	231748	42.21	-1
0	232312	42.31	-1
0	232876	42.41	-1
0	233440	42.51	-1
0	234004	42.61	-1
0	234661	42.71	-1
0	235224	42.81	-1
0	235787	42.91	-1
0	236359	43.01	-1
0	236922	43.11	-1
0	237485	43.21	-1
0	238048	43.31	-1
0	238611	43.41	-1
0	239174	43.51	-1
0	239737	43.61	-1
0	240300	43.71	-1
0	240863	43.81	-1
0	241426	43.91	-1
0	241998	44.01	-1
0	242561	44.11	-1
0	243124	44.21	-1
0	243687	44.31	-1
0	244250	44.41	-1
0	244813	44.51	-1
0	245376	44.61	-1
0	245939	44.71	-1
0	246502	44.81	-1
0	247065	44.91	-1
0	247637	45.01	-1
0	248200	45.11	-1
0	248763	45.21	-1
0	249326	45.31	-1
0	249889	45.41	-1
0	250452	45.51	-1
0	251015	45.61	-1
0	251578	45.71	-1
0	252141	45.81	-1
0	252704	45.91	-1
0	253276	46.01	-1
0	253839	46.11	-1
0	254402	46.21	-1
0	254965	46.31	-1
0	255528	46.41	-1
0	256091	46.51	-1
0	256654	46.61	-1
0	257217	46.71	-1
0	257780	46.81	-1
0	258343	46.91	-1
0	258915	47.01	-1
0	259478	47.11	-1
0	260041	47.21	-1
0	260604	47.31	-1
0	261167	47.41	-1
0	261730	47.51	-1
0	262293	47.61	-1
0	262856	47.71	-1
0	263419	47.81	-1
0	263982	47.91	-1
0	264554	48.01	-1
0	265117	48.11	-1
0	265680	48.21	-1
0	266243	48.31	-1
0	266806	48.41	-1
0	267462	48.51	-1
0	268024	48.61	-1
0	268586	48.71	-1
0	269148	48.81	-1
0	269710	48.91	-1
0	270281	49.01	-1
0	270843	49.11	-1
0	271405	49.21	-1
0	271967	49.31	-1
0	272529	49.41	-1
0	273091	49.51	-1
0	273653	49.61	-1
0	274215	49.71	-1
0	274777	49.81	-1
0	275339	49.91	-1
0	275910	50.01	-1
0	276472	50.11	-1
0	277034	50.21	-1
0	277596	50.31	-1
0	278158	50.41	-1
0	278720	50.51	-1
0	279282	50.61	-1
0	279844	50.71	-1
0	280406	50.81	-1
0	280968	50.91	-1
0	281539	51.01	-1
0	282101	51.11	-1
0	282663	51.21	-1
0	283225	51.31	-1
0	283787	51.41	-1
0	284349	51.51	-1
0	284911	51.61	-1
0	285473	51.71	-1
0	286035	51.81	-1
0	286597	51.91	-1
0	287168	52.01	-1
0	287730	52.11	-1
0	288292	52.21	-1
0	288854	52.31	-1
0	289416	52.41	-1
0	289978	52.51	-1
0	290540	52.61	-1
0	291102	52.71	-1
0	291664	52.81	-1
0	292226	52.91	-1
0	292797	53.01	-1
0	293359	53.11	-1
0	293921	53.21	-1
0	294483	53.31	-1
0	295045	53.41	-1
0	295607	53.51	-1
0	296169	53.61	-1
0	296731	53.71	-1
0	297386	53.81	-1
0	297947	53.91	-1
0	298517	54.01	-1
0	299078	54.11	-1
0	299639	54.21	-1
0	300200	54.31	-1
0	300761	54.41	-1
0	301322	54.51	-1
0	301883	54.61	-1
0	302444	54.71	-1
0	303005	54.81	-1
0	303566	54.91	-1
0	304136	55.01	-1
0	304697	55.11	-1
0	305258	55.21	-1
0	305819	55.31	-1
0	306380	55.41	-1
0	306941	55.51	-1
0	307502	55.61	-1
0	308063	55.71	-1
0	308624	55.81	-1
0	309185	55.91	-1
0	309755	56.01	-1
0	310316	56.11	-1
0	310877	56.21	-1
0	311438	56.31	-1
0	311999	56.41	-1
0	312560	56.51	-1
0	313121	56.61	-1
0	313682	56.71	-1
0	314243	56.81	-1
0	314804	56.91	-1
0	315374	57.01	-1
0	315935	57.11	-1
0	316496	57.21	-1
0	317057	57.31	-1
0	317618	57.41	-1
0	318179	57.51	-1
0	318740	57.61	-1
0	319301	57.71	-1
0	319862	57.81	-1
0	320423	57.91	-1
0	320993	58.01	-1
0	321554	58.11	-1
0	322115	58.21	-1
0	322676	58.31	-1
0	323237	58.41	-1
0	323798	58.51	-1
0	324359	58.61	-1
0	325013	58.71	-1
0	325573	58.81	-1
0	326133	58.91	-1
0	326702	59.01	-1
0	327262	59.11	-1
0	327822	59.21	-1
0	328382	59.31	-1
0	328942	59.41	-1
0	329502	59.51	-1
0	330062	59.61	-1
0	330622	59.71	-1
0	331182	59.81	-1
0	331742	59.91	-1
0	332311	60.01	-1
0	332871	60.11	-1
0	333431	60.21	-1
0	333991	60.31	-1
0	334551	60.41	-1
0	335111	60.51	-1
0	335671	60.61	-1
0	336231	60.71	-1
0	336791	60.81	-1
0	337351	60.91	-1
0	337920	61.01	-1
0	338480	61.11	-1
0	339040	61.21	-1
0	339600	61.31	-1
0	340160	61.41	-1
0	340720	61.51	-1
0	341280	61.61	-1
0	341840	61.71	-1
0	342400	61.81	-1
0	342960	61.91	-1
0	343529	62.01	-1
0	344089	62.11	-1
0	344649	62.21	-1
0	345209	62.31	-1
0	345769	62.41	-1
0	346329	62.51	-1
0	346889	62.61	-1
0	347449	62.71	-1
0	348009	62.81	-1
0	348569	62.91	-1
0	349138	63.01	-1
0	349698	63.11	-1
0	350258	63.21	-1
0	350911	63.31	-1
0	351470	63.41	-1
0	352029	63.51	-1
0	352588	63.61	-1
0	353147	63.71	-1
0	353706	63.81	-1
0	354265	63.91	-1
0	354833	64.01	-1
0	355392	64.11	-1
0	355951	64.21	-1
0	356510	64.31	-1
0	357069	64.41	-1
0	357628	64.51	-1
0	358187	64.61	-1
0	358746	64.71	-1
0	359305	64.81	-1
0	359864	64.91	-1
0	360432	65.01	-1
0	360991	65.11	-1
0	361550	65.21	-1
0	362109	65.31	-1
0	362668	65.41	-1
0	363227	65.51	-1
0	363786	65.61	-1
0	364345	65.71	-1
0	364904	65.81	-1
0	365463	65.91	-1
0	366031	66.01	-1
0	366590	66.11	-1
0	367149	66.21	-1
0	367708	66.31	-1
0	368267	66.41	-1
0	368826	66.51	-1
0	369385	66.61	-1
0	369944	66.71	-1
0	370503	66.81	-1
0	371062	66.91	-1
0	371630	67.01	-1
0	372189	67.11	-1
0	372748	67.21	-1
0	373307	67.31	-1
0	373866	67.41	-1
0	374425	67.51	-1
0	374984	67.61	-1
0	375636	67.71	-1
0	376194	67.81	-1
0	376752	67.91	-1
0	377319	68.01	-1
0	377877	68.11	-1
0	378435	68.21	-1
0	378993	68.31	-1
0	379551	68.41	-1
0	380109	68.51	-1
0	380667	68.61	-1
0	381225	68.71	-1
0	381783	68.81	-1
0	382341	68.91	-1
0	382908	69.01	-1
0	383466	69.11	-1
0	384024	69.21	-1
0	384582	69.31	-1
0	385140	69.41	-1
0	385698	69.51	-1
0	386256	69.61	-1
0	386814	69.71	-1
0	387372	69.81	-1
0	387930	69.91	-1
0	388497	70.01	-1
0	389055	70.11	-1
0	389613	70.21	-1
0	390171	70.31	-1
0	390729	70.41	-1
0	391287	70.51	-1
0	391845	70.61	-1
0	392403	70.71	-1
0	392961	70.81	-1
0	393519	70.91	-1
0	394086	71.01	-1
0	394644	71.11	-1
0	395202	71.21	-1
0	395760	71.31	-1
0	396318	71.41	-1
0	396876	71.51	-1
0	397434	71.61	-1
0	397992	71.71	-1
0	398550	71.81	-1
0	399108	71.91	-1
0	399675	72.01	-1
0	400977	72.11	-1
0	401534	72.21	-1
0	402091	72.31	-1
0	402648	72.41	-1
0	403205	72.51	-1
0	403762	72.61	-1
0	404319	72.71	-1
0	404876	72.81	-1
0	405433	72.91	-1
0	405999	73.01	-1
0	406556	73.11	-1
0	407113	73.21	-1
0	407670	73.31	-1
0	408227	73.41	-1
0	408784	73.51	-1
0	409341	73.61	-1
0	409898	73.71	-1
0	410455	73.81	-1
0	411012	73.91	-1
0	411578	74.01	-1
0	412135	74.11	-1
0	412692	74.21	-1
0	413249	74.31	-1
0	413806	74.41	-1
0	414363	74.51	-1
0	414920	74.61	-1
0	415477	74.71	-1
0	416034	74.81	-1
0	416591	74.91	-1
0	417157	75.01	-1
0	417714	75.11	-1
0	418271	75.21	-1
0	418828	75.31	-1
0	419385	75.41	-1
0	419942	75.51	-1
0	420499	75.61	-1
0	421056	75.71	-1
0	421613	75.81	-1
0	422170	75.91	-1
0	422736	76.01	-1
0	423293	76.11	-1
0	423850	76.21	-1
0	424407	76.31	-1
0	424964	76.41	-1
0	425521	76.51	-1
0	426078	76.61	-1
0	426635	76.71	-1
0	427192	76.81	-1
0	427749	76.91	-1
0	428315	77.01	-1
0	428872	77.11	-1
0	429429	77.21	-1
0	429986	77.31	-1
0	430543	77.41	-1
0	431100	77.51	-1
0	431657	77.61	-1
0	432214	77.71	-1
0	432771	77.81	-1
0	433328	77.91	-1
0	433894	78.01	-1
0	434451	78.11	-1
0	435008	78.21	-1
0	435565	78.31	-1
0	436122	78.41	-1
0	436679	78.51	-1
0	437236	78.61	-1
0	437793	78.71	-1
0	438350	78.81	-1
0	438907	78.91	-1
0	439473	79.01	-1
0	440030	79.11	-1
0	440587	79.21	-1
0	441144	79.31	-1
0	441701	79.41	-1
0	442258	79.51	-1
0	442815	79.61	-1
0	443372	79.71	-1
0	443929	79.81	-1
0	444486	79.91	-1
0	445052	80.01	-1
0	445609	80.11	-1
0	446166	80.21	-1
0	446723	80.31	-1
0	447280	80.41	-1
0	447837	80.51	-1
0	448394	80.61	-1
0	448951	80.71	-1
0	449508	80.81	-1
0	450065	80.91	-1
0	450631	81.01	-1
0	451188	81.11	-1
0	451745	81.21	-1
0	452302	81.31	-1
0	452859	81.41	-1
0	453416	81.51	-1
0	453973	81.61	-1
0	454530	81.71	-1
0	455087	81.81	-1
0	455644	81.91	-1
0	456210	82.01	-1
0	456767	82.11	-1
0	457324	82.21	-1
0	457881	82.31	-1
0	458438	82.41	-1
0	458995	82.51	-1
0	459552	82.61	-1
0	460109	82.71	-1
0	460666	82.81	-1
0	461223	82.91	-1
0	461789	83.01	-1
0	462346	83.11	-1
0	462903	83.21	-1
0	463460	83.31	-1
0	464017	83.41	-1
0	464574	83.51	-1
0	465131	83.61	-1
0	465688	83.71	-1
0	466245	83.81	-1
0	466802	83.91	-1
0	467368	84.01	-1
0	467925	84.11	-1
0	468482	84.21	-1
0	469039	84.31	-1
0	469596	84.41	-1
0	470153	84.51	-1
0	470710	84.61	-1
0	471267	84.71	-1
0	471824	84.81	-1
0	472381	84.91	-1
0	472947	85.01	-1
0	473504	85.11	-1
0	474061	85.21	-1
0	474618	85.31	-1
0	475175	85.41	-1
0	475732	85.51	-1
0	476289	85.61	-1
0	476846	85.71	-1
0	477403	85.81	-1
0	477960	85.91	-1
0	478526	86.01	-1
0	479083	86.11	-1
0	479640	86.21	-1
0	480197	86.31	-1
0	480754	86.41	-1
0	481311	86.51	-1
0	481868	86.61	-1
0	482425	86.71	-1
0	482982	86.81	-1
0	483539	86.91	-1
0	484105	87.01	-1
0	484662	87.11	-1
0	485219	87.21	-1
0	485776	87.31	-1
0	486333	87.41	-1
0	486890	87.51	-1
0	487447	87.61	-1
0	488004	87.71	-1
0	488561	87.81	-1
0	489118	87.91	-1
0	489684	88.01	-1
0	490241	88.11	-1
0	490798	88.21	-1
0	491355	88.31	-1
0	491912	88.41	-1
0	492469	88.51	-1
0	493026	88.61	-1
0	493583	88.71	-1
0	494140	88.81	-1
0	494697	88.91	-1
0	495263	89.01	-1
0	495820	89.11	-1
0	496377	89.21	-1
0	496934	89.31	-1
0	497491	89.41	-1
0	498048	89.51	-1
0	498605	89.61	-1
0	499162	89.71	-1
0	499719	89.81	-1
0	500276	89.91	-1
0	500842	90.01	-1
0	501399	90.11	-1
0	501956	90.21	-1
0	502513	90.31	-1
0	503070	90.41	-1
0	503627	90.51	-1
0	504184	90.61	-1
0	504741	90.71	-1
0	505298	90.81	-1
0	505855	90.91	-1
0	506421	91.01	-1
0	506978	91.11	-1
0	507535	91.21	-1
0	508092	91.31	-1
0	508649	91.41	-1
0	509206	91.51	-1
0	509763	91.61	-1
0	510320	91.71	-1
0	510877	91.81	-1
0	511434	91.91	-1
0	512000	92.01	-1
0	512557	92.11	-1
0	513114	92.21	-1
0	513671	92.31	-1
0	514228	92.41	-1
0	514785	92.51	-1
0	515342	92.61	-1
0	515899	92.71	-1
0	516456	92.81	-1
0	517013	92.91	-1
0	517579	93.01	-1
0	518136	93.11	-1
0	518693	93.21	-1
0	519250	93.31	-1
0	519807	93.41	-1
0	520364	93.51	-1
0	520921	93.61	-1
0	521478	93.71	-1
0	522035	93.81	-1
0	522592	93.91	-1
0	523158	94.01	-1
0	523715	94.11	-1
0	524272	94.21	-1
0	524829	94.31	-1
0	525386	94.41	-1
0	525943	94.51	-1
0	526500	94.61	-1
0	527057	94.71	-1
0	527614	94.81	-1
0	528171	94.91	-1
0	528737	95.01	-1
0	529294	95.11	-1
0	529851	95.21	-1
0	530408	95.31	-1
0	530965	95.41	-1
0	531522	95.51	-1
0	532079	95.61	-1
0	532636	95.71	-1
0	533193	95.81	-1
0	533750	95.91	-1
0	534316	96.01	-1
0	534873	96.11	-1
0	535430	96.21	-1
0	535987	96.31	-1
0	536544	96.41	-1
0	537101	96.51	-1
0	537658	96.61	-1
0	538215	96.71	-1
0	538772	96.81	-1
0	539329	96.91	-1
0	539895	97.01	-1
0	540452	97.11	-1
0	541009	97.21	-1
0	541566	97.31	-1
0	542123	97.41	-1
0	542680	97.51	-1
0	543237	97.61	-1
0	543794	97.71	-1
0	544351	97.81	-1
0	544908	97.91	-1
0	545474	98.01	-1
0	546031	98.11	-1
0	546588	98.21	-1
0	547145	98.31	-1
0	547702	98.41	-1
0	548259	98.51	-1
0	548816	98.61	-1
0	549373	98.71	-1
0	549930	98.81	-1
0	550487	98.91	-1
0	551053	99.01	-1
0	551610	99.11	-1
0	552167	99.21	-1
0	552724	99.31	-1
0	553281	99.41	-1
0	553838	99.51	-1
0	554395	99.61	-1
0	554952	99.71	-1
0	555509	99.81	-1
0	556066	99.91	-1
1	113	1.11	0
1	670	1.21	0
1	1227	1.31	0
1	1784	1.41	0
1	2341	1.51	0
1	2898	1.61	0
1	3455	1.71	0
1	4012	1.81	0
1	4569	1.91	0
1	5135	2.01	0
1	5692	2.11	0
1	6249	2.21	0
1	6806	2.31	0
1	7363	2.41	0
1	7920	2.51	0
1	8477	2.61	0
1	9034	2.71	0
1	9591	2.81	0
1	10148	2.91	0
1	10714	3.01	0
1	11271	3.11	0
1	11828	3.21	0
1	12385	3.31	0
1	12942	3.41	0
1	13499	3.51	0
1	14056	3.61	0
1	14613	3.71	0
1	15170	3.81	0
1	15727	3.91	0
1	16293	4.01	0
1	16850	4.11	0
1	17407	4.21	0
1	17964	4.31	0
1	18521	4.41	0
1	19078	4.51	0
1	19635	4.61	0
1	20192	4.71	0
1	20749	4.81	0
1	21306	4.91	0
1	21872	5.01	0
1	22429	5.11	0
1	22986	5.21	0
1	23543	5.31	0
1	24100	5.41	0
1	24657	5.51	0
1	25214	5.61	0
1	25771	5.71	0
1	26328	5.81	0
1	26885	5.91	0
1	27451	6.01	0
1	28008	6.11	0
1	28565	6.21	0
1	29122	6.31	0
1	29679	6.41	0
1	30236	6.51	0
1	30793	6.61	0
1	31350	6.71	0
1	31907	6.81	0
1	32464	6.91	0
1	33030	7.01	0
1	33587	7.11	0
1	34144	7.21	0
1	34701	7.31	0
1	35258	7.41	0
1	35815	7.51	0
1	36372	7.61	0
1	36929	7.71	0
1	37486	7.81	0
1	38043	7.91	0
1	38609	8.01	0
1	39166	8.11	0
1	39723	8.21	0
1	40280	8.31	0
1	40837	8.41	0
1	41394	8.51	0
1	41951	8.61	0
1	42508	8.71	0
1	43065	8.81	0
1	43622	8.91	0
1	44188	9.01	0
1	44745	9.11	0
1	45302	9.21	0
1	45859	9.31	0
1	46416	9.41	0
1	46973	9.51	0
1	47530	9.61	0
1	48087	9.71	0
1	48644	9.81	0
1	49201	9.91	0
1	49852	10.01	0
1	50416	10.11	0
1	50980	10.21	0
1	51544	10.31	0
1	52108	10.41	0
1	52672	10.51	0
1	53236	10.61	0
1	53800	10.71	0
1	54364	10.81	0
1	54928	10.91	0
1	55501	11.01	0
1	56065	11.11	0
1	56629	11.21	0
1	57193	11.31	0
1	57757	11.41	0
1	58321	11.51	0
1	58885	11.61	0
1	59449	11.71	0
1	60013	11.81	0
1	60577	11.91	0
1	61150	12.01	0
1	61714	12.11	0
1	62278	12.21	0
1	62842	12.31	0
1	63406	12.41	0
1	63970	12.51	0
1	64534	12.61	0
1	65098	12.71	0
1	65662	12.81	0
1	66226	12.91	0
1	66799	13.01	0
1	67363	13.11	0
1	67927	13.21	0
1	68491	13.31	0
1	69055	13.41	0
1	69619	13.51	0
1	70183	13.61	0
1	70747	13.71	0
1	71311	13.81	0
1	71875	13.91	0
1	72448	14.01	0
1	73012	14.11	0
1	73576	14.21	0
1	74140	14.31	0
1	74704	14.41	0
1	75268	14.51	0
1	75832	14.61	0
1	76396	14.71	0
1	76960	14.81	0
1	77524	14.91	0
1	78097	15.01	0
1	78661	15.11	0
1	79225	15.21	0
1	79789	15.31	0
1	80353	15.41	0
1	80917	15.51	0
1	81481	15.61	0
1	82045	15.71	0
1	82609	15.81	0
1	83173	15.91	0
1	83746	16.01	0
1	84310	16.11	0
1	84874	16.21	0
1	85438	16.31	0
1	86002	16.41	0
1	86566	16.51	0
1	87130	16.61	0
1	87694	16.71	0
1	88258	16.81	0
1	88822	16.91	0
1	89395	17.01	0
1	89959	17.11	0
1	90523	17.21	0
1	91087	17.31	0
1	91651	17.41	0
1	92215	17.51	0
1	92779	17.61	0
1	93343	17.71	0
1	93907	17.81	0
1	94471	17.91	0
1	95044	18.01	0
1	95608	18.11	0
1	96172	18.21	0
1	96736	18.31	0
1	97300	18.41	0
1	97864	18.51	0
1	98428	18.61	0
1	98992	18.71	0
1	99556	18.81	0
1	100120	18.91	0
1	100693	19.01	0
1	101257	19.11	0
1	101821	19.21	0
1	102385	19.31	0
1	102949	19.41	0
1	103513	19.51	0
1	104077	19.61	0
1	104641	19.71	0
1	105205	19.81	0
1	105769	19.91	0
1	106342	20.01	0
1	106906	20.11	0
1	107470	20.21	0
1	108034	20.31	0
1	108598	20.41	0
1	109162	20.51	0
1	109726	20.61	0
1	110290	20.71	0
1	110854	20.81	0
1	111418	20.91	0
1	111991	21.01	0
1	112555	21.11	0
1	113119	21.21	0
1	113683	21.31	0
1	114247	21.41	0
1	114811	21.51	0
1	115375	21.61	0
1	115939	21.71	0
1	116503	21.81	0
1	117067	21.91	0
1	117640	22.01	0
1	118204	22.11	0
1	118768	22.21	0
1	119332	22.31	0
1	119896	22.41	0
1	120460	22.51	0
1	121024	22.61	0
1	121588	22.71	0
1	122152	22.81	0
1	122716	22.91	0
1	123289	23.01	0
1	123853	23.11	0
1	124417	23.21	0
1	124981	23.31	0
1	125545	23.41	0
1	126109	23.51	0
1	126673	23.61	0
1	127237	23.71	0
1	127801	23.81	0
1	128365	23.91	0
1	128938	24.01	0
1	129502	24.11	0
1	130066	24.21	0
1	130630	24.31	0
1	131194	24.41	0
1	131758	24.51	0
1	132322	24.61	0
1	132886	24.71	0
1	133450	24.81	0
1	134014	24.91	0
1	134587	25.01	0
1	135151	25.11	0
1	135715	25.21	0
1	136279	25.31	0
1	136843	25.41	0
1	137407	25.51	0
1	137971	25.61	0
1	138535	25.71	0
1	139099	25.81	0
1	139663	25.91	0
1	140236	26.01	0
1	140800	26.11	0
1	141364	26.21	0
1	141928	26.31	0
1	142492	26.41	0
1	143056	26.51	0
1	143620	26.61	0
1	144184	26.71	0
1	144748	26.81	0
1	145312	26.91	0
1	145885	27.01	0
1	146449	27.11	0
1	147013	27.21	0
1	147577	27.31	0
1	148141	27.41	0
1	148705	27.51	0
1	149269	27.61	0
1	149833	27.71	0
1	150397	27.81	0
1	150961	27.91	0
1	151534	28.01	0
1	152098	28.11	0
1	152662	28.21	0
1	153226	28.31	0
1	153790	28.41	0
1	154354	28.51	0
1	154918	28.61	0
1	155482	28.71	0
1	156046	28.81	0
1	156610	28.91	0
1	157183	29.01	0
1	157747	29.11	0
1	158311	29.21	0
1	158875	29.31	0
1	159439	29.41	0
1	160003	29.51	0
1	160567	29.61	0
1	161131	29.71	0
1	161695	29.81	0
1	162259	29.91	0
1	162832	30.01	0
1	163396	30.11	0
1	163960	30.21	0
1	164524	30.31	0
1	165088	30.41	0
1	165652	30.51	0
1	166216	30.61	0
1	166780	30.71	0
1	167344	30.81	0
1	167908	30.91	0
1	168481	31.01	0
1	169045	31.11	0
1	169609	31.21	0
1	170173	31.31	0
1	170737	31.41	0
1	171301	31.51	0
1	171865	31.61	0
1	172429	31.71	0
1	172993	31.81	0
1	173557	31.91	0
1	174130	32.01	0
1	174694	32.11	0
1	175258	32.21	0
1	175822	32.31	0
1	176386	32.41	0
1	176950	32.51	0
1	177514	32.61	0
1	178078	32.71	0
1	178642	32.81	0
1	179206	32.91	0
1	179779	33.01	0
1	180343	33.11	0
1	180907	33.21	0
1	181471	33.31	0
1	182035	33.41	0
1	182599	33.51	0
1	183163	33.61	0
1	183727	33.71	0
1	184291	33.81	0
1	184855	33.91	0
1	185428	34.01	0
1	185992	34.11	0
1	186556	34.21	0
1	187120	34.31	0
1	187684	34.41	0
1	188248	34.51	0
1	188812	34.61	0
1	189376	34.71	0
1	189940	34.81	0
1	190504	34.91	0
1	191077	35.01	0
1	191641	35.11	0
1	192205	35.21	0
1	192769	35.31	0
1	193333	35.41	0
1	193897	35.51	0
1	194461	35.61	0
1	195025	35.71	0
1	195589	35.81	0
1	196153	35.91	0
1	196726	36.01	0
1	197290	36.11	0
1	197854	36.21	0
1	198418	36.31	0
1	198982	36.41	0
1	199546	36.51	0
1	200110	36.61	0
1	200674	36.71	0
1	201238	36.81	0
1	201802	36.91	0
1	202375	37.01	0
1	202939	37.11	0
1	203503	37.21	0
1	204067	37.31	0
1	204631	37.41	0
1	205195	37.51	0
1	205759	37.61	0
1	206323	37.71	0
1	206887	37.81	0
1	207451	37.91	0
1	208024	38.01	0
1	208588	38.11	0
1	209152	38.21	0
1	209716	38.31	0
1	210280	38.41	0
1	210844	38.51	0
1	211408	38.61	0
1	211972	38.71	0
1	212536	38.81	0
1	213100	38.91	0
1	213673	39.01	0
1	214237	39.11	0
1	214801	39.21	0
1	215365	39.31	0
1	215929	39.41	0
1	216493	39.51	0
1	217057	39.61	0
1	217621	39.71	0
1	218185	39.81	0
1	218749	39.91	0
1	219322	40.01	0
1	219886	40.11	0
1	220450	40.21	0
1	221014	40.31	0
1	221578	40.41	0
1	222142	40.51	0
1	222706	40.61	0
1	223270	40.71	0
1	223834	40.81	0
1	224398	40.91	0
1	224971	41.01	0
1	225535	41.11	0
1	226099	41.21	0
1	226663	41.31	0
1	227227	41.41	0
1	227791	41.51	0
1	228355	41.61	0
1	228919	41.71	0
1	229483	41.81	0
1	230047	41.91	0
1	230620	42.01	0
1	231184	42.11	0
1	231748	42.21	0
1	232312	42.31	0
1	232876	42.41	0
1	233440	42.51	0
1	234004	42.61	0
1	234661	42.71	0
1	235224	42.81	0
1	235787	42.91	0
1	236359	43.01	0
1	236922	43.11	0
1	237485	43.21	0
1	238048	43.31	0
1	238611	43.41	0
1	239174	43.51	0
1	239737	43.61	0
1	240300	43.71	0
1	240863	43.81	0
1	241426	43.91	0
1	241998	44.01	0
1	242561	44.11	0
1	243124	44.21	0
1	243687	44.31	0
1	244250	44.41	0
1	244813	44.51	0
1	245376	44.61	0
1	245939	44.71	0
1	246502	44.81	0
1	247065	44.91	0
1	247637	45.01	0
1	248200	45.11	0
1	248763	45.21	0
1	249326	45.31	0
1	249889	45.41	0
1	250452	45.51	0
1	251015	45.61	0
1	251578	45.71	0
1	252141	45.81	0
1	252704	45.91	0
1	253276	46.01	0
1	253839	46.11	0
1	254402	46.21	0
1	254965	46.31	0
1	255528	46.41	0
1	256091	46.51	0
1	256654	46.61	0
1	257217	46.71	0
1	257780	46.81	0
1	258343	46.91	0
1	258915	47.01	0
1	259478	47.11	0
1	260041	47.21	0
1	260604	47.31	0
1	261167	47.41	0
1	261730	47.51	0
1	262293	47.61	0
1	262856	47.71	0
1	263419	47.81	0
1	263982	47.91	0
1	264554	48.01	0
1	265117	48.11	0
1	265680	48.21	0
1	266243	48.31	0
1	266806	48.41	0
1	267462	48.51	0
1	268024	48.61	0
1	268586	48.71	0
1	269148	48.81	0
1	269710	48.91	0
1	270281	49.01	0
1	270843	49.11	0
1	271405	49.21	0
1	271967	49.31	0
1	272529	49.41	0
1	273091	49.51	0
1	273653	49.61	0
1	274215	49.71	0
1	274777	49.81	0
1	275339	49.91	0
1	275910	50.01	0
1	276472	50.11	0
1	277034	50.21	0
1	277596	50.31	0
1	278158	50.41	0
1	278720	50.51	0
1	279282	50.61	0
1	279844	50.71	0
1	280406	50.81	0
1	280968	50.91	0
1	281539	51.01	0
1	282101	51.11	0
1	282663	51.21	0
1	283225	51.31	0
1	283787	51.41	0
1	284349	51.51	0
1	284911	51.61	0
1	285473	51.71	0
1	286035	51.81	0
1	286597	51.91	0
1	287168	52.01	0
1	287730	52.11	0
1	288292	52.21	0
1	288854	52.31	0
1	289416	52.41	0
1	289978	52.51	0
1	290540	52.61	0
1	291102	52.71	0
1	291664	52.81	0
1	292226	52.91	0
1	292797	53.01	0
1	293359	53.11	0
1	293921	53.21	0
1	294483	53.31	0
1	295045	53.41	0
1	295607	53.51	0
1	296169	53.61	0
1	296731	53.71	0
1	297386	53.81	0
1	297947	53.91	0
1	298517	54.01	0
1	299078	54.11	0
1	299639	54.21	0
1	300200	54.31	0
1	300761	54.41	0
1	301322	54.51	0
1	301883	54.61	0
1	302444	54.71	0
1	303005	54.81	0
1	303566	54.91	0
1	304136	55.01	0
1	304697	55.11	0
1	305258	55.21	0
1	305819	55.31	0
1	306380	55.41	0
1	306941	55.51	0
1	307502	55.61	0
1	308063	55.71	0
1	308624	55.81	0
1	309185	55.91	0
1	309755	56.01	0
1	310316	56.11	0
1	310877	56.21	0
1	311438	56.31	0
1	311999	56.41	0
1	312560	56.51	0
1	313121	56.61	0
1	313682	56.71	0
1	314243	56.81	0
1	314804	56.91	0
1	315374	57.01	0
1	315935	57.11	0
1	316496	57.21	0
1	317057	57.31	0
1	317618	57.41	0
1	318179	57.51	0
1	318740	57.61	0
1	319301	57.71	0
1	319862	57.81	0
1	320423	57.91	0
1	320993	58.01	0
1	321554	58.11	0
1	322115	58.21	0
1	322676	58.31	0
1	323237	58.41	0
1	323798	58.51	0
1	324359	58.61	0
1	325013	58.71	0
1	325573	58.81	0
1	326133	58.91	0
1	326702	59.01	0
1	327262	59.11	0
1	327822	59.21	0
1	328382	59.31	0
1	328942	59.41	0
1	329502	59.51	0
1	330062	59.61	0
1	330622	59.71	0
1	331182	59.81	0
1	331742	59.91	0
1	332311	60.01	0
1	332871	60.11	0
1	333431	60.21	0
1	333991	60.31	0
1	334551	60.41	0
1	335111	60.51	0
1	335671	60.61	0
1	336231	60.71	0
1	336791	60.81	0
1	337351	60.91	0
1	337920	61.01	0
1	338480	61.11	0
1	339040	61.21	0
1	339600	61.31	0
1	340160	61.41	0
1	340720	61.51	0
1	341280	61.61	0
1	341840	61.71	0
1	342400	61.81	0
1	342960	61.91	0
1	343529	62.01	0
1	344089	62.11	0
1	344649	62.21	0
1	345209	62.31	0
1	345769	62.41	0
1	346329	62.51	0
1	346889	62.61	0
1	347449	62.71	0
1	348009	62.81	0
1	348569	62.91	0
1	349138	63.01	0
1	349698	63.11	0
1	350258	63.21	0
1	350911	63.31	0
1	351470	63.41	0
1	352029	63.51	0
1	352588	63.61	0
1	353147	63.71	0
1	353706	63.81	0
1	354265	63.91	0
1	354833	64.01	0
1	355392	64.11	0
1	355951	64.21	0
1	356510	64.31	0
1	357069	64.41	0
1	357628	64.51	0
1	358187	64.61	0
1	358746	64.71	0
1	359305	64.81	0
1	359864	64.91	0
1	360432	65.01	0
1	360991	65.11	0
1	361550	65.21	0
1	362109	65.31	0
1	362668	65.41	0
1	363227	65.51	0
1	363786	65.61	0
1	364345	65.71	0
1	364904	65.81	0
1	365463	65.91	0
1	366031	66.01	0
1	366590	66.11	0
1	367149	66.21	0
1	367708	66.31	0
1	368267	66.41	0
1	368826	66.51	0
1	369385	66.61	0
1	369944	66.71	0
1	370503	66.81	0
1	371062	66.91	0
1	371630	67.01	0
1	372189	67.11	0
1	372748	67.21	0
1	373307	67.31	0
1	373866	67.41	0
1	374425	67.51	0
1	374984	67.61	0
1	375636	67.71	0
1	376194	67.81	0
1	376752	67.91	0
1	377319	68.01	0
1	377877	68.11	0
1	378435	68.21	0
1	378993	68.31	0
1	379551	68.41	0
1	380109	68.51	0
1	380667	68.61	0
1	381225	68.71	0
1	381783	68.81	0
1	382341	68.91	0
1	382908	69.01	0
1	383466	69.11	0
1	384024	69.21	0
1	384582	69.31	0
1	385140	69.41	0
1	385698	69.51	0
1	386256	69.61	0
1	386814	69.71	0
1	387372	69.81	0
1	387930	69.91	0
1	388497	70.01	0
1	389055	70.11	0
1	389613	70.21	0
1	390171	70.31	0
1	390729	70.41	0
1	391287	70.51	0
1	391845	70.61	0
1	392403	70.71	0
1	392961	70.81	0
1	393519	70.91	0
1	394086	71.01	0
1	394644	71.11	0
1	395202	71.21	0
1	395760	71.31	0
1	396318	71.41	0
1	396876	71.51	0
1	397434	71.61	0
1	397992	71.71	0
1	398550	71.81	0
1	399108	71.91	0
1	399675	72.01	0
1	400977	72.11	0
1	401534	72.21	0
1	402091	72.31	0
1	402648	72.41	0
1	403205	72.51	0
1	403762	72.61	0
1	404319	72.71	0
1	404876	72.81	0
1	405433	72.91	0
1	405999	73.01	0
1	406556	73.11	0
1	407113	73.21	0
1	407670	73.31	0
1	408227	73.41	0
1	408784	73.51	0
1	409341	73.61	0
1	409898	73.71	0
1	410455	73.81	0
1	411012	73.91	0
1	411578	74.01	0
1	412135	74.11	0
1	412692	74.21	0
1	413249	74.31	0
1	413806	74.41	0
1	414363	74.51	0
1	414920	74.61	0
1	415477	74.71	0
1	416034	74.81	0
1	416591	74.91	0
1	417157	75.01	0
1	417714	75.11	0
1	418271	75.21	0
1	418828	75.31	0
1	419385	75.41	0
1	419942	75.51	0
1	420499	75.61	0
1	421056	75.71	0
1	421613	75.81	0
1	422170	75.91	0
1	422736	76.01	0
1	423293	76.11	0
1	423850	76.21	0
1	424407	76.31	0
1	424964	76.41	0
1	425521	76.51	0
1	426078	76.61	0
1	426635	76.71	0
1	427192	76.81	0
1	427749	76.91	0
1	428315	77.01	0
1	428872	77.11	0
1	429429	77.21	0
1	429986	77.31	0
1	430543	77.41	0
1	431100	77.51	0
1	431657	77.61	0
1	432214	77.71	0
1	432771	77.81	0
1	433328	77.91	0
1	433894	78.01	0
1	434451	78.11	0
1	435008	78.21	0
1	435565	78.31	0
1	436122	78.41	0
1	436679	78.51	0
1	437236	78.61	0
1	437793	78.71	0
1	438350	78.81	0
1	438907	78.91	0
1	439473	79.01	0
1	440030	79.11	0
1	440587	79.21	0
1	441144	79.31	0
1	441701	79.41	0
1	442258	79.51	0
1	442815	79.61	0
1	443372	79.71	0
1	443929	79.81	0
1	444486	79.91	0
1	445052	80.01	0
1	445609	80.11	0
1	446166	80.21	0
1	446723	80.31	0
1	447280	80.41	0
1	447837	80.51	0
1	448394	80.61	0
1	448951	80.71	0
1	449508	80.81	0
1	450065	80.91	0
1	450631	81.01	0
1	451188	81.11	0
1	451745	81.21	0
1	452302	81.31	0
1	452859	81.41	0
1	453416	81.51	0
1	453973	81.61	0
1	454530	81.71	0
1	455087	81.81	0
1	455644	81.91	0
1	456210	82.01	0
1	456767	82.11	0
1	457324	82.21	0
1	457881	82.31	0
1	458438	82.41	0
1	458995	82.51	0
1	459552	82.61	0
1	460109	82.71	0
1	460666	82.81	0
1	461223	82.91	0
1	461789	83.01	0
1	462346	83.11	0
1	462903	83.21	0
1	463460	83.31	0
1	464017	83.41	0
1	464574	83.51	0
1	465131	83.61	0
1	465688	83.71	0
1	466245	83.81	0
1	466802	83.91	0
1	467368	84.01	0
1	467925	84.11	0
1	468482	84.21	0
1	469039	84.31	0
1	469596	84.41	0
1	470153	84.51	0
1	470710	84.61	0
1	471267	84.71	0
1	471824	84.81	0
1	472381	84.91	0
1	472947	85.01	0
1	473504	85.11	0
1	474061	85.21	0
1	474618	85.31	0
1	475175	85.41	0
1	475732	85.51	0
1	476289	85.61	0
1	476846	85.71	0
1	477403	85.81	0
1	477960	85.91	0
1	478526	86.01	0
1	479083	86.11	0
1	479640	86.21	0
1	480197	86.31	0
1	480754	86.41	0
1	481311	86.51	0
1	481868	86.61	0
1	482425	86.71	0
1	482982	86.81	0
1	483539	86.91	0
1	484105	87.01	0
1	484662	87.11	0
1	485219	87.21	0
1	485776	87.31	0
1	486333	87.41	0
1	486890	87.51	0
1	487447	87.61	0
1	488004	87.71	0
1	488561	87.81	0
1	489118	87.91	0
1	489684	88.01	0
1	490241	88.11	0
1	490798	88.21	0
1	491355	88.31	0
1	491912	88.41	0
1	492469	88.51	0
1	493026	88.61	0
1	493583	88.71	0
1	494140	88.81	0
1	494697	88.91	0
1	495263	89.01	0
1	495820	89.11	0
1	496377	89.21	0
1	496934	89.31	0
1	497491	89.41	0
1	498048	89.51	0
1	498605	89.61	0
1	499162	89.71	0
1	499719	89.81	0
1	500276	89.91	0
1	500842	90.01	0
1	501399	90.11	0
1	501956	90.21	0
1	502513	90.31	0
1	503070	90.41	0
1	503627	90.51	0
1	504184	90.61	0
1	504741	90.71	0
1	505298	90.81	0
1	505855	90.91	0
1	506421	91.01	0
1	506978	91.11	0
1	507535	91.21	0
1	508092	91.31	0
1	508649	91.41	0
1	509206	91.51	0
1	509763	91.61	0
1	510320	91.71	0
1	510877	91.81	0
1	511434	91.91	0
1	512000	92.01	0
1	512557	92.11	0
1	513114	92.21	0
1	513671	92.31	0
1	514228	92.41	0
1	514785	92.51	0
1	515342	92.61	0
1	515899	92.71	0
1	516456	92.81	0
1	517013	92.91	0
1	517579	93.01	0
1	518136	93.11	0
1	518693	93.21	0
1	519250	93.31	0
1	519807	93.41	0
1	520364	93.51	0
1	520921	93.61	0
1	521478	93.71	0
1	522035	93.81	0
1	522592	93.91	0
1	523158	94.01	0
1	523715	94.11	0
1	524272	94.21	0
1	524829	94.31	0
1	525386	94.41	0
1	525943	94.51	0
1	526500	94.61	0
1	527057	94.71	0
1	527614	94.81	0
1	528171	94.91	0
1	528737	95.01	0
1	529294	95.11	0
1	529851	95.21	0
1	530408	95.31	0
1	530965	95.41	0
1	531522	95.51	0
1	532079	95.61	0
1	532636	95.71	0
1	533193	95.81	0
1	533750	95.91	0
1	534316	96.01	0
1	534873	96.11	0
1	535430	96.21	0
1	535987	96.31	0
1	536544	96.41	0
1	537101	96.51	0
1	537658	96.61	0
1	538215	96.71	0
1	538772	96.81	0
1	539329	96.91	0
1	539895	97.01	0
1	540452	97.11	0
1	541009	97.21	0
1	541566	97.31	0
1	542123	97.41	0
1	542680	97.51	0
1	543237	97.61	0
1	543794	97.71	0
1	544351	97.81	0
1	544908	97.91	0
1	545474	98.01	0
1	546031	98.11	0
1	546588	98.21	0
1	547145	98.31	0
1	547702	98.41	0
1	548259	98.51	0
1	548816	98.61	0
1	549373	98.71	0
1	549930	98.81	0
1	550487	98.91	0
1	551053	99.01	0
1	551610	99.11	0
1	552167	99.21	0
1	552724	99.31	0
1	553281	99.41	0
1	553838	99.51	0
1	554395	99.61	0
1	554952	99.71	0
1	555509	99.81	0
1	556066	99.91	0
2	113	1.11	0
2	670	1.21	0
2	1227	1.31	0
2	1784	1.41	0
2	2341	1.51	0
2	2898	1.61	0
2	3455	1.71	0
2	4012	1.81	0
2	4569	1.91	0
2	5135	2.01	0
2	5692	2.11	0
2	6249	2.21	0
2	6806	2.31	0
2	7363	2.41	0
2	7920	2.51	0
2	8477	2.61	0
2	9034	2.71	0
2	9591	2.81	0
2	10148	2.91	0
2	10714	3.01	0
2	11271	3.11	0
2	11828	3.21	0
2	12385	3.31	0
2	12942	3.41	0
2	13499	3.51	0
2	14056	3.61	0
2	14613	3.71	0
2	15170	3.81	0
2	15727	3.91	0
2	16293	4.01	0
2	16850	4.11	0
2	17407	4.21	0
2	17964	4.31	0
2	18521	4.41	0
2	19078	4.51	0
2	19635	4.61	0
2	20192	4.71	0
2	20749	4.81	0
2	21306	4.91	0
2	21872	5.01	0
2	22429	5.11	0
2	22986	5.21	0
2	23543	5.31	0
2	24100	5.41	0
2	24657	5.51	0
2	25214	5.61	0
2	25771	5.71	0
2	26328	5.81	0
2	26885	5.91	0
2	27451	6.01	0
2	28008	6.11	0
2	28565	6.21	0
2	29122	6.31	0
2	29679	6.41	0
2	30236	6.51	0
2	30793	6.61	0
2	31350	6.71	0
2	31907	6.81	0
2	32464	6.91	0
2	33030	7.01	0
2	33587	7.11	0
2	34144	7.21	0
2	34701	7.31	0
2	35258	7.41	0
2	35815	7.51	0
2	36372	7.61	0
2	36929	7.71	0
2	37486	7.81	0
2	38043	7.91	0
2	38609	8.01	0
2	39166	8.11	0
2	39723	8.21	0
2	40280	8.31	0
2	40837	8.41	0
2	41394	8.51	0
2	41951	8.61	0
2	42508	8.71	0
2	43065	8.81	0
2	43622	8.91	0
2	44188	9.01	0
2	44745	9.11	0
2	45302	9.21	0
2	45859	9.31	0
2	46416	9.41	0
2	46973	9.51	0
2	47530	9.61	0
2	48087	9.71	0
2	48644	9.81	0
2	49201	9.91	0
2	49852	10.01	0
2	50416	10.11	0
2	50980	10.21	0
2	51544	10.31	0
2	52108	10.41	0
2	52672	10.51	0
2	53236	10.61	0
2	53800	10.71	0
2	54364	10.81	0
2	54928	10.91	0
2	55501	11.01	0
2	56065	11.11	0
2	56629	11.21	0
2	57193	11.31	0
2	57757	11.41	0
2	58321	11.51	0
2	58885	11.61	0
2	59449	11.71	0
2	60013	11.81	0
2	60577	11.91	0
2	61150	12.01	0
2	61714	12.11	0
2	62278	12.21	0
2	62842	12.31	0
2	63406	12.41	0
2	63970	12.51	0
2	64534	12.61	0
2	65098	12.71	0
2	65662	12.81	0
2	66226	12.91	0
2	66799	13.01	0
2	67363	13.11	0
2	67927	13.21	0
2	68491	13.31	0
2	69055	13.41	0
2	69619	13.51	0
2	70183	13.61	0
2	70747	13.71	0
2	71311	13.81	0
2	71875	13.91	0
2	72448	14.01	0
2	73012	14.11	0
2	73576	14.21	0
2	74140	14.31	0
2	74704	14.41	0
2	75268	14.51	0
2	75832	14.61	0
2	76396	14.71	0
2	76960	14.81	0
2	77524	14.91	0
2	78097	15.01	0
2	78661	15.11	0
2	79225	15.21	0
2	79789	15.31	0
2	80353	15.41	0
2	80917	15.51	0
2	81481	15.61	0
2	82045	15.71	0
2	82609	15.81	0
2	83173	15.91	0
2	83746	16.01	0
2	84310	16.11	0
2	84874	16.21	0
2	85438	16.31	0
2	86002	16.41	0
2	86566	16.51	0
2	87130	16.61	0
2	87694	16.71	0
2	88258	16.81	0
2	88822	16.91	0
2	89395	17.01	0
2	89959	17.11	0
2	90523	17.21	0
2	91087	17.31	0
2	91651	17.41	0
2	92215	17.51	0
2	92779	17.61	0
2	93343	17.71	0
2	93907	17.81	0
2	94471	17.91	0
2	95044	18.01	0
2	95608	18.11	0
2	96172	18.21	0
2	96736	18.31	0
2	97300	18.41	0
2	97864	18.51	0
2	98428	18.61	0
2	98992	18.71	0
2	99556	18.81	0
2	100120	18.91	0
2	100693	19.01	0
2	101257	19.11	0
2	101821	19.21	0
2	102385	19.31	0
2	102949	19.41	0
2	103513	19.51	0
2	104077	19.61	0
2	104641	19.71	0
2	105205	19.81	0
2	105769	19.91	0
2	106342	20.01	0
2	106906	20.11	0
2	107470	20.21	0
2	108034	20.31	0
2	108598	20.41	0
2	109162	20.51	0
2	109726	20.61	0
2	110290	20.71	0
2	110854	20.81	0
2	111418	20.91	0
2	111991	21.01	0
2	112555	21.11	0
2	113119	21.21	0
2	113683	21.31	0
2	114247	21.41	0
2	114811	21.51	0
2	115375	21.61	0
2	115939	21.71	0
2	116503	21.81	0
2	117067	21.91	0
2	117640	22.01	0
2	118204	22.11	0
2	118768	22.21	0
2	119332	22.31	0
2	119896	22.41	0
2	120460	22.51	0
2	121024	22.61	0
2	121588	22.71	0
2	122152	22.81	0
2	122716	22.91	0
2	123289	23.01	0
2	123853	23.11	0
2	124417	23.21	0
2	124981	23.31	0
2	125545	23.41	0
2	126109	23.51	0
2	126673	23.61	0
2	127237	23.71	0
2	127801	23.81	0
2	128365	23.91	0
2	128938	24.01	0
2	129502	24.11	0
2	130066	24.21	0
2	130630	24.31	0
2	131194	24.41	0
2	131758	24.51	0
2	132322	24.61	0
2	132886	24.71	0
2	133450	24.81	0
2	134014	24.91	0
2	134587	25.01	0
2	135151	25.11	0
2	135715	25.21	0
2	136279	25.31	0
2	136843	25.41	0
2	137407	25.51	0
2	137971	25.61	0
2	138535	25.71	0
2	139099	25.81	0
2	139663	25.91	0
2	140236	26.01	0
2	140800	26.11	0
2	141364	26.21	0
2	141928	26.31	0
2	142492	26.41	0
2	143056	26.51	0
2	143620	26.61	0
2	144184	26.71	0
2	144748	26.81	0
2	145312	26.91	0
2	145885	27.01	0
2	146449	27.11	0
2	147013	27.21	0
2	147577	27.31	0
2	148141	27.41	0
2	148705	27.51	0
2	149269	27.61	0
2	149833	27.71	0
2	150397	27.81	0
2	150961	27.91	0
2	151534	28.01	0
2	152098	28.11	0
2	152662	28.21	0
2	153226	28.31	0
2	153790	28.41	0
2	154354	28.51	0
2	154918	28.61	0
2	155482	28.71	0
2	156046	28.81	0
2	156610	28.91	0
2	157183	29.01	0
2	157747	29.11	0
2	158311	29.21	0
2	158875	29.31	0
2	159439	29.41	0
2	160003	29.51	0
2	160567	29.61	0
2	161131	29.71	0
2	161695	29.81	0
2	162259	29.91	0
2	162832	30.01	0
2	163396	30.11	0
2	163960	30.21	0
2	164524	30.31	0
2	165088	30.41	0
2	165652	30.51	0
2	166216	30.61	0
2	166780	30.71	0
2	167344	30.81	0
2	167908	30.91	0
2	168481	31.01	0
2	169045	31.11	0
2	169609	31.21	0
2	170173	31.31	0
2	170737	31.41	0
2	171301	31.51	0
2	171865	31.61	0
2	172429	31.71	0
2	172993	31.81	0
2	173557	31.91	0
2	174130	32.01	0
2	174694	32.11	0
2	175258	32.21	0
2	175822	32.31	0
2	176386	32.41	0
2	176950	32.51	0
2	177514	32.61	0
2	178078	32.71	0
2	178642	32.81	0
2	179206	32.91	0
2	179779	33.01	0
2	180343	33.11	0
2	180907	33.21	0
2	181471	33.31	0
2	182035	33.41	0
2	182599	33.51	0
2	183163	33.61	0
2	183727	33.71	0
2	184291	33.81	0
2	184855	33.91	0
2	185428	34.01	0
2	185992	34.11	0
2	186556	34.21	0
2	187120	34.31	0
2	187684	34.41	0
2	188248	34.51	0
2	188812	34.61	0
2	189376	34.71	0
2	189940	34.81	0
2	190504	34.91	0
2	191077	35.01	0
2	191641	35.11	0
2	192205	35.21	0
2	192769	35.31	0
2	193333	35.41	0
2	193897	35.51	0
2	194461	35.61	0
2	195025	35.71	0
2	195589	35.81	0
2	196153	35.91	0
2	196726	36.01	0
2	197290	36.11	0
2	197854	36.21	0
2	198418	36.31	0
2	198982	36.41	0
2	199546	36.51	0
2	200110	36.61	0
2	200674	36.71	0
2	201238	36.81	0
2	201802	36.91	0
2	202375	37.01	0
2	202939	37.11	0
2	203503	37.21	0
2	204067	37.31	0
2	204631	37.41	0
2	205195	37.51	0
2	205759	37.61	0
2	206323	37.71	0
2	206887	37.81	0
2	207451	37.91	0
2	208024	38.01	0
2	208588	38.11	0
2	209152	38.21	0
2	209716	38.31	0
2	210280	38.41	0
2	210844	38.51	0
2	211408	38.61	0
2	211972	38.71	0
2	212536	38.81	0
2	213100	38.91	0
2	213673	39.01	0
2	214237	39.11	0
2	214801	39.21	0
2	215365	39.31	0
2	215929	39.41	0
2	216493	39.51	0
2	217057	39.61	0
2	217621	39.71	0
2	218185	39.81	0
2	218749	39.91	0
2	219322	40.01	0
2	219886	40.11	0
2	220450	40.21	0
2	221014	40.31	0
2	221578	40.41	0
2	222142	40.51	0
2	222706	40.61	0
2	223270	40.71	0
2	223834	40.81	0
2	224398	40.91	0
2	224971	41.01	0
2	225535	41.11	0
2	226099	41.21	0
2	226663	41.31	0
2	227227	41.41	0
2	227791	41.51	0
2	228355	41.61	0
2	228919	41.71	0
2	229483	41.81	0
2	230047	41.91	0
2	230620	42.01	0
2	231184	42.11	0
2	231748	42.21	0
2	232312	42.31	0
2	232876	42.41	0
2	233440	42.51	0
2	234004	42.61	0
2	234661	42.71	0
2	235224	42.81	0
2	235787	42.91	0
2	236359	43.01	0
2	236922	43.11	0
2	237485	43.21	0
2	238048	43.31	0
2	238611	43.41	0
2	239174	43.51	0
2	239737	43.61	0
2	240300	43.71	0
2	240863	43.81	0
2	241426	43.91	0
2	241998	44.01	0
2	242561	44.11	0
2	243124	44.21	0
2	243687	44.31	0
2	244250	44.41	0
2	244813	44.51	0
2	245376	44.61	0
2	245939	44.71	0
2	246502	44.81	0
2	247065	44.91	0
2	247637	45.01	0
2	248200	45.11	0
2	248763	45.21	0
2	249326	45.31	0
2	249889	45.41	0
2	250452	45.51	0
2	251015	45.61	0
2	251578	45.71	0
2	252141	45.81	0
2	252704	45.91	0
2	253276	46.01	0
2	253839	46.11	0
2	254402	46.21	0
2	254965	46.31	0
2	255528	46.41	0
2	256091	46.51	0
2	256654	46.61	0
2	257217	46.71	0
2	257780	46.81	0
2	258343	46.91	0
2	258915	47.01	0
2	259478	47.11	0
2	260041	47.21	0
2	260604	47.31	0
2	261167	47.41	0
2	261730	47.51	0
2	262293	47.61	0
2	262856	47.71	0
2	263419	47.81	0
2	263982	47.91	0
2	264554	48.01	0
2	265117	48.11	0
2	265680	48.21	0
2	266243	48.31	0
2	266806	48.41	0
2	267462	48.51	0
2	268024	48.61	0
2	268586	48.71	0
2	269148	48.81	0
2	269710	48.91	0
2	270281	49.01	0
2	270843	49.11	0
2	271405	49.21	0
2	271967	49.31	0
2	272529	49.41	0
2	273091	49.51	0
2	273653	49.61	0
2	274215	49.71	0
2	274777	49.81	0
2	275339	49.91	0
2	275910	50.01	0
2	276472	50.11	0
2	277034	50.21	0
2	277596	50.31	0
2	278158	50.41	0
2	278720	50.51	0
2	279282	50.61	0
2	279844	50.71	0
2	280406	50.81	0
2	280968	50.91	0
2	281539	51.01	0
2	282101	51.11	0
2	282663	51.21	0
2	283225	51.31	0
2	283787	51.41	0
2	284349	51.51	0
2	284911	51.61	0
2	285473	51.71	0
2	286035	51.81	0
2	286597	51.91	0
2	287168	52.01	0
2	287730	52.11	0
2	288292	52.21	0
2	288854	52.31	0
2	289416	52.41	0
2	289978	52.51	0
2	290540	52.61	0
2	291102	52.71	0
2	291664	52.81	0
2	292226	52.91	0
2	292797	53.01	0
2	293359	53.11	0
2	293921	53.21	0
2	294483	53.31	0
2	295045	53.41	0
2	295607	53.51	0
2	296169	53.61	0
2	296731	53.71	0
2	297386	53.81	0
2	297947	53.91	0
2	298517	54.01	0
2	299078	54.11	0
2	299639	54.21	0
2	300200	54.31	0
2	300761	54.41	0
2	301322	54.51	0
2	301883	54.61	0
2	302444	54.71	0
2	303005	54.81	0
2	303566	54.91	0
2	304136	55.01	0
2	304697	55.11	0
2	305258	55.21	0
2	305819	55.31	0
2	306380	55.41	0
2	306941	55.51	0
2	307502	55.61	0
2	308063	55.71	0
2	308624	55.81	0
2	309185	55.91	0
2	309755	56.01	0
2	310316	56.11	0
2	310877	56.21	0
2	311438	56.31	0
2	311999	56.41	0
2	312560	56.51	0
2	313121	56.61	0
2	313682	56.71	0
2	314243	56.81	0
2	314804	56.91	0
2	315374	57.01	0
2	315935	57.11	0
2	316496	57.21	0
2	317057	57.31	0
2	317618	57.41	0
2	318179	57.51	0
2	318740	57.61	0
2	319301	57.71	0
2	319862	57.81	0
2	320423	57.91	0
2	320993	58.01	0
2	321554	58.11	0
2	322115	58.21	0
2	322676	58.31	0
2	323237	58.41	0
2	323798	58.51	0
2	324359	58.61	0
2	325013	58.71	0
2	325573	58.81	0
2	326133	58.91	0
2	326702	59.01	0
2	327262	59.11	0
2	327822	59.21	0
2	328382	59.31	0
2	328942	59.41	0
2	329502	59.51	0
2	330062	59.61	0
2	330622	59.71	0
2	331182	59.81	0
2	331742	59.91	0
2	332311	60.01	0
2	332871	60.11	0
2	333431	60.21	0
2	333991	60.31	0
2	334551	60.41	0
2	335111	60.51	0
2	335671	60.61	0
2	336231	60.71	0
2	336791	60.81	0
2	337351	60.91	0
2	337920	61.01	0
2	338480	61.11	0
2	339040	61.21	0
2	339600	61.31	0
2	340160	61.41	0
2	340720	61.51	0
2	341280	61.61	0
2	341840	61.71	0
2	342400	61.81	0
2	342960	61.91	0
2	343529	62.01	0
2	344089	62.11	0
2	344649	62.21	0
2	345209	62.31	0
2	345769	62.41	0
2	346329	62.51	0
2	346889	62.61	0
2	347449	62.71	0
2	348009	62.81	0
2	348569	62.91	0
2	349138	63.01	0
2	349698	63.11	0
2	350258	63.21	0
2	350911	63.31	0
2	351470	63.41	0
2	352029	63.51	0
2	352588	63.61	0
2	353147	63.71	0
2	353706	63.81	0
2	354265	63.91	0
2	354833	64.01	0
2	355392	64.11	0
2	355951	64.21	0
2	356510	64.31	0
2	357069	64.41	0
2	357628	64.51	0
2	358187	64.61	0
2	358746	64.71	0
2	359305	64.81	0
2	359864	64.91	0
2	360432	65.01	0
2	360991	65.11	0
2	361550	65.21	0
2	362109	65.31	0
2	362668	65.41	0
2	363227	65.51	0
2	363786	65.61	0
2	364345	65.71	0
2	364904	65.81	0
2	365463	65.91	0
2	366031	66.01	0
2	366590	66.11	0
2	367149	66.21	0
2	367708	66.31	0
2	368267	66.41	0
2	368826	66.51	0
2	369385	66.61	0
2	369944	66.71	0
2	370503	66.81	0
2	371062	66.91	0
2	371630	67.01	0
2	372189	67.11	0
2	372748	67.21	0
2	373307	67.31	0
2	373866	67.41	0
2	374425	67.51	0
2	374984	67.61	0
2	375636	67.71	0
2	376194	67.81	0
2	376752	67.91	0
2	377319	68.01	0
2	377877	68.11	0
2	378435	68.21	0
2	378993	68.31	0
2	379551	68.41	0
2	380109	68.51	0
2	380667	68.61	0
2	381225	68.71	0
2	381783	68.81	0
2	382341	68.91	0
2	382908	69.01	0
2	383466	69.11	0
2	384024	69.21	0
2	384582	69.31	0
2	385140	69.41	0
2	385698	69.51	0
2	386256	69.61	0
2	386814	69.71	0
2	387372	69.81	0
2	387930	69.91	0
2	388497	70.01	0
2	389055	70.11	0
2	389613	70.21	0
2	390171	70.31	0
2	390729	70.41	0
2	391287	70.51	0
2	391845	70.61	0
2	392403	70.71	0
2	392961	70.81	0
2	393519	70.91	0
2	394086	71.01	0
2	394644	71.11	0
2	395202	71.21	0
2	395760	71.31	0
2	396318	71.41	0
2	396876	71.51	0
2	397434	71.61	0
2	397992	71.71	0
2	398550	71.81	0
2	399108	71.91	0
2	399675	72.01	0
2	400977	72.11	0
2	401534	72.21	0
2	402091	72.31	0
2	402648	72.41	0
2	403205	72.51	0
2	403762	72.61	0
2	404319	72.71	0
2	404876	72.81	0
2	405433	72.91	0
2	405999	73.01	0
2	406556	73.11	0
2	407113	73.21	0
2	407670	73.31	0
2	408227	73.41	0
2	408784	73.51	0
2	409341	73.61	0
2	409898	73.71	0
2	410455	73.81	0
2	411012	73.91	0
2	411578	74.01	0
2	412135	74.11	0
2	412692	74.21	0
2	413249	74.31	0
2	413806	74.41	0
2	414363	74.51	0
2	414920	74.61	0
2	415477	74.71	0
2	416034	74.81	0
2	416591	74.91	0
2	417157	75.01	0
2	417714	75.11	0
2	418271	75.21	0
2	418828	75.31	0
2	419385	75.41	0
2	419942	75.51	0
2	420499	75.61	0
2	421056	75.71	0
2	421613	75.81	0
2	422170	75.91	0
2	422736	76.01	0
2	423293	76.11	0
2	423850	76.21	0
2	424407	76.31	0
2	424964	76.41	0
2	425521	76.51	0
2	426078	76.61	0
2	426635	76.71	0
2	427192	76.81	0
2	427749	76.91	0
2	428315	77.01	0
2	428872	77.11	0
2	429429	77.21	0
2	429986	77.31	0
2	430543	77.41	0
2	431100	77.51	0
2	431657	77.61	0
2	432214	77.71	0
2	432771	77.81	0
2	433328	77.91	0
2	433894	78.01	0
2	434451	78.11	0
2	435008	78.21	0
2	435565	78.31	0
2	436122	78.41	0
2	436679	78.51	0
2	437236	78.61	0
2	437793	78.71	0
2	438350	78.81	0
2	438907	78.91	0
2	439473	79.01	0
2	440030	79.11	0
2	440587	79.21	0
2	441144	79.31	0
2	441701	79.41	0
2	442258	79.51	0
2	442815	79.61	0
2	443372	79.71	0
2	443929	79.81	0
2	444486	79.91	0
2	445052	80.01	0
2	445609	80.11	0
2	446166	80.21	0
2	446723	80.31	0
2	447280	80.41	0
2	447837	80.51	0
2	448394	80.61	0
2	448951	80.71	0
2	449508	80.81	0
2	450065	80.91	0
2	450631	81.01	0
2	451188	81.11	0
2	451745	81.21	0
2	452302	81.31	0
2	452859	81.41	0
2	453416	81.51	0
2	453973	81.61	0
2	454530	81.71	0
2	455087	81.81	0
2	455644	81.91	0
2	456210	82.01	0
2	456767	82.11	0
2	457324	82.21	0
2	457881	82.31	0
2	458438	82.41	0
2	458995	82.51	0
2	459552	82.61	0
2	460109	82.71	0
2	460666	82.81	0
2	461223	82.91	0
2	461789	83.01	0
2	462346	83.11	0
2	462903	83.21	0
2	463460	83.31	0
2	464017	83.41	0
2	464574	83.51	0
2	465131	83.61	0
2	465688	83.71	0
2	466245	83.81	0
2	466802	83.91	0
2	467368	84.01	0
2	467925	84.11	0
2	468482	84.21	0
2	469039	84.31	0
2	469596	84.41	0
2	470153	84.51	0
2	470710	84.61	0
2	471267	84.71	0
2	471824	84.81	0
2	472381	84.91	0
2	472947	85.01	0
2	473504	85.11	0
2	474061	85.21	0
2	474618	85.31	0
2	475175	85.41	0
2	475732	85.51	0
2	476289	85.61	0
2	476846	85.71	0
2	477403	85.81	0
2	477960	85.91	0
2	478526	86.01	0
2	479083	86.11	0
2	479640	86.21	0
2	480197	86.31	0
2	480754	86.41	0
2	481311	86.51	0
2	481868	86.61	0
2	482425	86.71	0
2	482982	86.81	0
2	483539	86.91	0
2	484105	87.01	0
2	484662	87.11	0
2	485219	87.21	0
2	485776	87.31	0
2	486333	87.41	0
2	486890	87.51	0
2	487447	87.61	0
2	488004	87.71	0
2	488561	87.81	0
2	489118	87.91	0
2	489684	88.01	0
2	490241	88.11	0
2	490798	88.21	0
2	491355	88.31	0
2	491912	88.41	0
2	492469	88.51	0
2	493026	88.61	0
2	493583	88.71	0
2	494140	88.81	0
2	494697	88.91	0
2	495263	89.01	0
2	495820	89.11	0
2	496377	89.21	0
2	496934	89.31	0
2	497491	89.41	0
2	498048	89.51	0
2	498605	89.61	0
2	499162	89.71	0
2	499719	89.81	0
2	500276	89.91	0
2	500842	90.01	0
2	501399	90.11	0
2	501956	90.21	0
2	502513	90.31	0
2	503070	90.41	0
2	503627	90.51	0
2	504184	90.61	0
2	504741	90.71	0
2	505298	90.81	0
2	505855	90.91	0
2	506421	91.01	0
2	506978	91.11	0
2	507535	91.21	0
2	508092	91.31	0
2	508649	91.41	0
2	509206	91.51	0
2	509763	91.61	0
2	510320	91.71	0
2	510877	91.81	0
2	511434	91.91	0
2	512000	92.01	0
2	512557	92.11	0
2	513114	92.21	0
2	513671	92.31	0
2	514228	92.41	0
2	514785	92.51	0
2	515342	92.61	0
2	515899	92.71	0
2	516456	92.81	0
2	517013	92.91	0
2	517579	93.01	0
2	518136	93.11	0
2	518693	93.21	0
2	519250	93.31	0
2	519807	93.41	0
2	520364	93.51	0
2	520921	93.61	0
2	521478	93.71	0
2	522035	93.81	0
2	522592	93.91	0
2	523158	94.01	0
2	523715	94.11	0
2	524272	94.21	0
2	524829	94.31	0
2	525386	94.41	0
2	525943	94.51	0
2	526500	94.61	0
2	527057	94.71	0
2	527614	94.81	0
2	528171	94.91	0
2	528737	95.01	0
2	529294	95.11	0
2	529851	95.21	0
2	530408	95.31	0
2	530965	95.41	0
2	531522	95.51	0
2	532079	95.61	0
2	532636	95.71	0
2	533193	95.81	0
2	533750	95.91	0
2	534316	96.01	0
2	534873	96.11	0
2	535430	96.21	0
2	535987	96.31	0
2	536544	96.41	0
2	537101	96.51	0
2	537658	96.61	0
2	538215	96.71	0
2	538772	96.81	0
2	539329	96.91	0
2	539895	97.01	0
2	540452	97.11	0
2	541009	97.21	0
2	541566	97.31	0
2	542123	97.41	0
2	542680	97.51	0
2	543237	97.61	0
2	543794	97.71	0
2	544351	97.81	0
2	544908	97.91	0
2	545474	98.01	0
2	546031	98.11	0
2	546588	98.21	0
2	547145	98.31	0
2	547702	98.41	0
2	548259	98.51	0
2	548816	98.61	0
2	549373	98.71	0
2	549930	98.81	0
2	550487	98.91	0
2	551053	99.01	0
2	551610	99.11	0
2	552167	99.21	0
2	552724	99.31	0
2	553281	99.41	0
2	553838	99.51	0
2	554395	99.61	0
2	554952	99.71	0
2	555509	99.81	0
2	556066	99.91	0
3	113	1.11	-0.000716383
3	670	1.21	-0.00136341
3	1227	1.31	-0.00186974
3	1784	1.41	-0.00225157
3	2341	1.51	-0.00252443
3	2898	1.61	-0.00270298
3	3455	1.71	-0.00280098
3	4012	1.81	-0.00283113
3	4569	1.91	-0.00280509
3	5135	2.01	-0.00273342
3	5692	2.11	-0.00262559
3	6249	2.21	-0.00249005
3	6806	2.31	-0.00233419
3	7363	2.41	-0.00216447
3	7920	2.51	-0.00198642
3	8477	2.61	-0.00180472
3	9034	2.71	-0.0016233
3	9591	2.81	-0.00144536
3	10148	2.91	-0.00127346
3	10714	3.01	-0.0011096
3	11271	3.11	-0.000955278
3	11828	3.21	-0.000811546
3	12385	3.31	-0.00067908
3	12942	3.41	-0.000558232
3	13499	3.51	-0.000449082
3	14056	3.61	-0.000351487
3	14613	3.71	-0.00026512
3	15170	3.81	-0.000189514
3	15727	3.91	-0.000124092
3	16293	4.01	-6.81972e-05
3	16850	4.11	-2.11209e-05
3	17407	4.21	1.78769e-05
3	17964	4.31	4.9548e-05
3	18521	4.41	7.46407e-05
3	19078	4.51	9.38867e-05
3	19635	4.61	0.000107991
3	20192	4.71	0.000117625
3	20749	4.81	0.000123418
3	21306	4.91	0.000125957
3	21872	5.01	0.000125781
3	22429	5.11	0.00012338
3	22986	5.21	0.000119198
3	23543	5.31	0.000113629
3	24100	5.41	0.000107022
3	24657	5.51	9.96832e-05
3	25214	5.61	9.18747e-05
3	25771	5.71	8.38211e-05
3	26328	5.81	7.57109e-05
3	26885	5.91	6.76999e-05
3	27451	6.01	5.99137e-05
3	28008	6.11	5.24518e-05
3	28565	6.21	4.53896e-05
3	29122	6.31	3.87821e-05
3	29679	6.41	3.2666e-05
3	30236	6.51	2.70628e-05
3	30793	6.61	2.19809e-05
3	31350	6.71	1.74176e-05
3	31907	6.81	1.33618e-05
3	32464	6.91	9.79494e-06
3	33030	7.01	6.6932e-06
3	33587	7.11	4.02864e-06
3	34144	7.21	1.77051e-06
3	34701	7.31	-1.13691e-07
3	35258	7.41	-1.65736e-06
3	35815	7.51	-2.89397e-06
3	36372	7.61	-3.85652e-06
3	36929	7.71	-4.57698e-06
3	37486	7.81	-5.08591e-06
3	38043	7.91	-5.41219e-06
3	38609	8.01	-5.58279e-06
3	39166	8.11	-5.6226e-06
3	39723	8.21	-5.55442e-06
3	40280	8.31	-5.39886e-06
3	40837	8.41	-5.17441e-06
3	41394	8.51	-4.89748e-06
3	41951	8.61	-4.58246e-06
3	42508	8.71	-4.24184e-06
3	43065	8.81	-3.88634e-06
3	43622	8.91	-3.52499e-06
3	44188	9.01	-3.16534e-06
3	44745	9.11	-2.81353e-06
3	45302	9.21	-2.47446e-06
3	45859	9.31	-2.15192e-06
3	46416	9.41	-1.84873e-06
3	46973	9.51	-1.56685e-06
3	47530	9.61	-1.30751e-06
3	48087	9.71	-1.0713e-06
3	48644	9.81	-8.58321e-07
3	49201	9.91	-6.68206e-07
3	49852	10.01	-5.0026e-07
3	50416	10.11	-3.53514e-07
3	50980	10.21	-2.2679e-07
3	51544	10.31	-1.18765e-07
3	52108	10.41	-2.80163e-08
3	52672	10.51	4.6931e-08
3	53236	10.61	1.07573e-07
3	53800	10.71	1.55391e-07
3	54364	10.81	1.91831e-07
3	54928	10.91	2.18284e-07
3	55501	11.01	2.3607e-07
3	56065	11.11	2.46427e-07
3	56629	11.21	2.50502e-07
3	57193	11.31	2.49353e-07
3	57757	11.41	2.43938e-07
3	58321	11.51	2.3512e-07
3	58885	11.61	2.23669e-07
3	59449	11.71	2.10264e-07
3	60013	11.81	1.95496e-07
3	60577	11.91	1.79874e-07
3	61150	12.01	1.63833e-07
3	61714	12.11	1.47736e-07
3	62278	12.21	1.3188e-07
3	62842	12.31	1.16508e-07
3	63406	12.41	1.01807e-07
3	63970	12.51	8.79222e-08
3	64534	12.61	7.49541e-08
3	65098	12.71	6.29711e-08
3	65662	12.81	5.20114e-08
3	66226	12.91	4.20883e-08
3	66799	13.01	3.3193e-08
3	67363	13.11	2.53003e-08
3	67927	13.21	1.83718e-08
3	68491	13.31	1.23581e-08
3	69055	13.41	7.20348e-09
3	69619	13.51	2.84537e-09
3	70183	13.61	-7.80886e-10
3	70747	13.71	-3.74136e-09
3	71311	13.81	-6.10285e-09
3	71875	13.91	-7.93072e-09
3	72448	14.01	-9.28821e-09
3	73012	14.11	-1.0235e-08
3	73576	14.21	-1.08283e-08
3	74140	14.31	-1.11211e-08
3	74704	14.41	-1.11612e-08
3	75268	14.51	-1.09946e-08
3	75832	14.61	-1.06599e-08
3	76396	14.71	-1.01945e-08
3	76960	14.81	-9.62999e-09
3	77524	14.91	-8.99405e-09
3	78097	15.01	-8.31086e-09
3	78661	15.11	-7.60103e-09
3	79225	15.21	-6.88338e-09
3	79789	15.31	-6.17071e-09
3	80353	15.41	-5.47544e-09
3	80917	15.51	-4.80682e-09
3	81481	15.61	-4.17266e-09
3	82045	15.71	-3.57687e-09
3	82609	15.81	-3.02443e-09
3	83173	15.91	-2.51674e-09
3	83746	16.01	-2.05489e-09
3	84310	16.11	-1.63958e-09
3	84874	16.21	-1.26903e-09
3	85438	16.31	-9.42535e-10
3	86002	16.41	-6.57963e-10
3	86566	16.51	-4.1247e-10
3	87130	16.61	-2.04636e-10
3	87694	16.71	-2.91323e-11
3	88258	16.81	1.14753e-10
3	88822	16.91	2.30926e-10
3	89395	17.01	3.22231e-10
3	89959	17.11	3.91154e-10
3	90523	17.21	4.40892e-10
3	91087	17.31	4.73577e-10
3	91651	17.41	4.92051e-10
3	92215	17.51	4.98446e-10
3	92779	17.61	4.94893e-10
3	93343	17.71	4.82814e-10
3	93907	17.81	4.6434e-10
3	94471	17.91	4.40892e-10
3	95044	18.01	4.13536e-10
3	95608	18.11	3.83693e-10
3	96172	18.21	3.51719e-10
3	96736	18.31	3.19744e-10
3	97300	18.41	2.8777e-10
3	97864	18.51	2.55795e-10
3	98428	18.61	2.25953e-10
3	98992	18.71	1.97531e-10
3	99556	18.81	1.6982e-10
3	100120	18.91	1.44951e-10
3	100693	19.01	1.21503e-10
3	101257	19.11	1.00187e-10
3	101821	19.21	8.10019e-11
3	102385	19.31	6.32383e-11
3	102949	19.41	4.86722e-11
3	103513	19.51	3.44613e-11
3	104077	19.61	2.34479e-11
3	104641	19.71	1.27898e-11
3	105205	19.81	4.9738e-12
3	105769	19.91	-2.13163e-12
3	106342	20.01	-8.17124e-12
3	106906	20.11	-1.1724e-11
3	107470	20.21	-1.52767e-11
3	108034	20.31	-1.88294e-11
3	108598	20.41	-2.02505e-11
3	109162	20.51	-2.02505e-11
3	109726	20.61	-2.02505e-11
3	110290	20.71	-2.02505e-11
3	110854	20.81	-2.02505e-11
3	111418	20.91	-2.02505e-11
3	111991	21.01	-2.02505e-11
3	112555	21.11	-2.02505e-11
3	113119	21.21	-2.02505e-11
3	113683	21.31	-1.88294e-11
3	114247	21.41	-1.7053e-11
3	114811	21.51	-1.52767e-11
3	115375	21.61	-1.38556e-11
3	115939	21.71	-1.24345e-11
3	116503	21.81	-1.13687e-11
3	117067	21.91	-1.03029e-11
3	117640	22.01	-9.23706e-12
3	118204	22.11	-8.52651e-12
3	118768	22.21	-7.4607e-12
3	119332	22.31	-6.75016e-12
3	119896	22.41	-6.03961e-12
3	120460	22.51	-5.68434e-12
3	121024	22.61	-4.9738e-12
3	121588	22.71	-4.61853e-12
3	122152	22.81	-4.26326e-12
3	122716	22.91	-3.90799e-12
3	123289	23.01	-3.55271e-12
3	123853	23.11	-3.19744e-12
3	124417	23.21	-2.84217e-12
3	124981	23.31	-2.4869e-12
3	125545	23.41	-2.13163e-12
3	126109	23.51	-2.13163e-12
3	126673	23.61	-1.77636e-12
3	127237	23.71	-1.77636e-12
3	127801	23.81	-1.42109e-12
3	128365	23.91	-1.42109e-12
3	128938	24.01	-1.06581e-12
3	129502	24.11	-1.06581e-12
3	130066	24.21	-1.06581e-12
3	130630	24.31	-1.06581e-12
3	131194	24.41	-7.10543e-13
3	131758	24.51	-7.10543e-13
3	132322	24.61	-7.10543e-13
3	132886	24.71	-7.10543e-13
3	133450	24.81	-7.10543e-13
3	134014	24.91	-3.55271e-13
3	134587	25.01	-3.55271e-13
3	135151	25.11	-3.55271e-13
3	135715	25.21	-3.55271e-13
3	136279	25.31	-3.55271e-13
3	136843	25.41	-3.55271e-13
3	137407	25.51	-3.55271e-13
3	137971	25.61	-3.55271e-13
3	138535	25.71	-3.55271e-13
3	139099	25.81	-3.55271e-13
3	139663	25.91	0
3	140236	26.01	0
3	140800	26.11	0
3	141364	26.21	0
3	141928	26.31	0
3	142492	26.41	0
3	143056	26.51	0
3	143620	26.61	0
3	144184	26.71	0
3	144748	26.81	0
3	145312	26.91	0
3	145885	27.01	0
3	146449	27.11	0
3	147013	27.21	0
3	147577	27.31	0
3	148141	27.41	0
3	148705	27.51	0
3	149269	27.61	0
3	149833	27.71	0
3	150397	27.81	0
3	150961	27.91	0
3	151534	28.01	0
3	152098	28.11	0
3	152662	28.21	0
3	153226	28.31	0
3	153790	28.41	0
3	154354	28.51	0
3	154918	28.61	0
3	155482	28.71	0
3	156046	28.81	0
3	156610	28.91	0
3	157183	29.01	0
3	157747	29.11	0
3	158311	29.21	0
3	158875	29.31	0
3	159439	29.41	0
3	160003	29.51	0
3	160567	29.61	0
3	161131	29.71	0
3	161695	29.81	0
3	162259	29.91	0
3	162832	30.01	0
3	163396	30.11	0
3	163960	30.21	0
3	164524	30.31	0
3	165088	30.41	0
3	165652	30.51	0
3	166216	30.61	0
3	166780	30.71	0
3	167344	30.81	0
3	167908	30.91	0
3	168481	31.01	0
3	169045	31.11	0
3	169609	31.21	0
3	170173	31.31	0
3	170737	31.41	0
3	171301	31.51	0
3	171865	31.61	0
3	172429	31.71	0
3	172993	31.81	0
3	173557	31.91	0
3	174130	32.01	0
3	174694	32.11	0
3	175258	32.21	0
3	175822	32.31	0
3	176386	32.41	0
3	176950	32.51	0
3	177514	32.61	0
3	178078	32.71	0
3	178642	32.81	0
3	179206	32.91	0
3	179779	33.01	0
3	180343	33.11	0
3	180907	33.21	0
3	181471	33.31	0
3	182035	33.41	0
3	182599	33.51	0
3	183163	33.61	0
3	183727	33.71	0
3	184291	33.81	0
3	184855	33.91	0
3	185428	34.01	0
3	185992	34.11	0
3	186556	34.21	0
3	187120	34.31	0
3	187684	34.41	0
3	188248	34.51	0
3	188812	34.61	0
3	189376	34.71	0
3	189940	34.81	0
3	190504	34.91	0
3	191077	35.01	0
3	191641	35.11	0
3	192205	35.21	0
3	192769	35.31	0
3	193333	35.41	0
3	193897	35.51	0
3	194461	35.61	0
3	195025	35.71	0
3	195589	35.81	0
3	196153	35.91	0
3	196726	36.01	0
3	197290	36.11	0
3	197854	36.21	0
3	198418	36.31	0
3	198982	36.41	0
3	199546	36.51	0
3	200110	36.61	0
3	200674	36.71	0
3	201238	36.81	0
3	201802	36.91	0
3	202375	37.01	0
3	202939	37.11	0
3	203503	37.21	0
3	204067	37.31	0
3	204631	37.41	0
3	205195	37.51	0
3	205759	37.61	0
3	206323	37.71	0
3	206887	37.81	0
3	207451	37.91	0
3	208024	38.01	0
3	208588	38.11	0
3	209152	38.21	0
3	209716	38.31	0
3	210280	38.41	0
3	210844	38.51	0
3	211408	38.61	0
3	211972	38.71	0
3	212536	38.81	0
3	213100	38.91	0
3	213673	39.01	0
3	214237	39.11	0
3	214801	39.21	0
3	215365	39.31	0
3	215929	39.41	0
3	216493	39.51	0
3	217057	39.61	0
3	217621	39.71	0
3	218185	39.81	0
3	218749	39.91	0
3	219322	40.01	0
3	219886	40.11	0
3	220450	40.21	0
3	221014	40.31	0
3	221578	40.41	0
3	222142	40.51	0
3	222706	40.61	0
3	223270	40.71	0
3	223834	40.81	0
3	224398	40.91	0
3	224971	41.01	0
3	225535	41.11	0
3	226099	41.21	0
3	226663	41.31	0
3	227227	41.41	0
3	227791	41.51	0
3	228355	41.61	0
3	228919	41.71	0
3	229483	41.81	0
3	230047	41.91	0
3	230620	42.01	0
3	231184	42.11	0
3	231748	42.21	0
3	232312	42.31	0
3	232876	42.41	0
3	233440	42.51	0
3	234004	42.61	0
3	234661	42.71	0
3	235224	42.81	0
3	235787	42.91	0
3	236359	43.01	0
3	236922	43.11	0
3	237485	43.21	0
3	238048	43.31	0
3	238611	43.41	0
3	239174	43.51	0
3	239737	43.61	0
3	240300	43.71	0
3	240863	43.81	0
3	241426	43.91	0
3	241998	44.01	0
3	242561	44.11	0
3	243124	44.21	0
3	243687	44.31	0
3	244250	44.41	0
3	244813	44.51	0
3	245376	44.61	0
3	245939	44.71	0
3	246502	44.81	0
3	247065	44.91	0
3	247637	45.01	0
3	248200	45.11	0
3	248763	45.21	0
3	249326	45.31	0
3	249889	45.41	0
3	250452	45.51	0
3	251015	45.61	0
3	251578	45.71	0
3	252141	45.81	0
3	252704	45.91	0
3	253276	46.01	0
3	253839	46.11	0
3	254402	46.21	0
3	254965	46.31	0
3	255528	46.41	0
3	256091	46.51	0
3	256654	46.61	0
3	257217	46.71	0
3	257780	46.81	0
3	258343	46.91	0
3	258915	47.01	0
3	259478	47.11	0
3	260041	47.21	0
3	260604	47.31	0
3	261167	47.41	0
3	261730	47.51	0
3	262293	47.61	0
3	262856	47.71	0
3	263419	47.81	0
3	263982	47.91	0
3	264554	48.01	0
3	265117	48.11	0
3	265680	48.21	0
3	266243	48.31	0
3	266806	48.41	0
3	267462	48.51	0
3	268024	48.61	0
3	268586	48.71	0
3	269148	48.81	0
3	269710	48.91	0
3	270281	49.01	0
3	270843	49.11	0
3	271405	49.21	0
3	271967	49.31	0
3	272529	49.41	0
3	273091	49.51	0
3	273653	49.61	0
3	274215	49.71	0
3	274777	49.81	0
3	275339	49.91	0
3	275910	50.01	0
3	276472	50.11	0
3	277034	50.21	0
3	277596	50.31	0
3	278158	50.41	0
3	278720	50.51	0
3	279282	50.61	0
3	279844	50.71	0
3	280406	50.81	0
3	280968	50.91	0
3	281539	51.01	0
3	282101	51.11	0
3	282663	51.21	0
3	283225	51.31	0
3	283787	51.41	0
3	284349	51.51	0
3	284911	51.61	0
3	285473	51.71	0
3	286035	51.81	0
3	286597	51.91	0
3	287168	52.01	0
3	287730	52.11	0
3	288292	52.21	0
3	288854	52.31	0
3	289416	52.41	0
3	289978	52.51	0
3	290540	52.61	0
3	291102	52.71	0
3	291664	52.81	0
3	292226	52.91	0
3	292797	53.01	0
3	293359	53.11	0
3	293921	53.21	0
3	294483	53.31	0
3	295045	53.41	0
3	295607	53.51	0
3	296169	53.61	0
3	296731	53.71	0
3	297386	53.81	0
3	297947	53.91	0
3	298517	54.01	0
3	299078	54.11	0
3	299639	54.21	0
3	300200	54.31	0
3	300761	54.41	0
3	301322	54.51	0
3	301883	54.61	0
3	302444	54.71	0
3	303005	54.81	0
3	303566	54.91	0
3	304136	55.01	0
3	304697	55.11	0
3	305258	55.21	0
3	305819	55.31	0
3	306380	55.41	0
3	306941	55.51	0
3	307502	55.61	0
3	308063	55.71	0
3	308624	55.81	0
3	309185	55.91	0
3	309755	56.01	0
3	310316	56.11	0
3	310877	56.21	0
3	311438	56.31	0
3	311999	56.41	0
3	312560	56.51	0
3	313121	56.61	0
3	313682	56.71	0
3	314243	56.81	0
3	314804	56.91	0
3	315374	57.01	0
3	315935	57.11	0
3	316496	57.21	0
3	317057	57.31	0
3	317618	57.41	0
3	318179	57.51	0
3	318740	57.61	0
3	319301	57.71	0
3	319862	57.81	0
3	320423	57.91	0
3	320993	58.01	0
3	321554	58.11	0
3	322115	58.21	0
3	322676	58.31	0
3	323237	58.41	0
3	323798	58.51	0
3	324359	58.61	0
3	325013	58.71	0
3	325573	58.81	0
3	326133	58.91	0
3	326702	59.01	0
3	327262	59.11	0
3	327822	59.21	0
3	328382	59.31	0
3	328942	59.41	0
3	329502	59.51	0
3	330062	59.61	0
3	330622	59.71	0
3	331182	59.81	0
3	331742	59.91	0
3	332311	60.01	0
3	332871	60.11	0
3	333431	60.21	0
3	333991	60.31	0
3	334551	60.41	0
3	335111	60.51	0
3	335671	60.61	0
3	336231	60.71	0
3	336791	60.81	0
3	337351	60.91	0
3	337920	61.01	0
3	338480	61.11	0
3	339040	61.21	0
3	339600	61.31	0
3	340160	61.41	0
3	340720	61.51	0
3	341280	61.61	0
3	341840	61.71	0
3	342400	61.81	0
3	342960	61.91	0
3	343529	62.01	0
3	344089	62.11	0
3	344649	62.21	0
3	345209	62.31	0
3	345769	62.41	0
3	346329	62.51	0
3	346889	62.61	0
3	347449	62.71	0
3	348009	62.81	0
3	348569	62.91	0
3	349138	63.01	0
3	349698	63.11	0
3	350258	63.21	0
3	350911	63.31	0
3	351470	63.41	0
3	352029	63.51	0
3	352588	63.61	0
3	353147	63.71	0
3	353706	63.81	0
3	354265	63.91	0
3	354833	64.01	0
3	355392	64.11	0
3	355951	64.21	0
3	356510	64.31	0
3	357069	64.41	0
3	357628	64.51	0
3	358187	64.61	0
3	358746	64.71	0
3	359305	64.81	0
3	359864	64.91	0
3	360432	65.01	0
3	360991	65.11	0
3	361550	65.21	0
3	362109	65.31	0
3	362668	65.41	0
3	363227	65.51	0
3	363786	65.61	0
3	364345	65.71	0
3	364904	65.81	0
3	365463	65.91	0
3	366031	66.01	0
3	366590	66.11	0
3	367149	66.21	0
3	367708	66.31	0
3	368267	66.41	0
3	368826	66.51	0
3	369385	66.61	0
3	369944	66.71	0
3	370503	66.81	0
3	371062	66.91	0
3	371630	67.01	0
3	372189	67.11	0
3	372748	67.21	0
3	373307	67.31	0
3	373866	67.41	0
3	374425	67.51	0
3	374984	67.61	0
3	375636	67.71	0
3	376194	67.81	0
3	376752	67.91	0
3	377319	68.01	0
3	377877	68.11	0
3	378435	68.21	0
3	378993	68.31	0
3	379551	68.41	0
3	380109	68.51	0
3	380667	68.61	0
3	381225	68.71	0
3	381783	68.81	0
3	382341	68.91	0
3	382908	69.01	0
3	383466	69.11	0
3	384024	69.21	0
3	384582	69.31	0
3	385140	69.41	0
3	385698	69.51	0
3	386256	69.61	0
3	386814	69.71	0
3	387372	69.81	0
3	387930	69.91	0
3	388497	70.01	0
3	389055	70.11	0
3	389613	70.21	0
3	390171	70.31	0
3	390729	70.41	0
3	391287	70.51	0
3	391845	70.61	0
3	392403	70.71	0
3	392961	70.81	0
3	393519	70.91	0
3	394086	71.01	0
3	394644	71.11	0
3	395202	71.21	0
3	395760	71.31	0
3	396318	71.41	0
3	396876	71.51	0
3	397434	71.61	0
3	397992	71.71	0
3	398550	71.81	0
3	399108	71.91	0
3	399675	72.01	0
3	400977	72.11	0
3	401534	72.21	0
3	402091	72.31	0
3	402648	72.41	0
3	403205	72.51	0
3	403762	72.61	0
3	404319	72.71	0
3	404876	72.81	0
3	405433	72.91	0
3	405999	73.01	0
3	406556	73.11	0
3	407113	73.21	0
3	407670	73.31	0
3	408227	73.41	0
3	408784	73.51	0
3	409341	73.61	0
3	409898	73.71	0
3	410455	73.81	0
3	411012	73.91	0
3	411578	74.01	0
3	412135	74.11	0
3	412692	74.21	0
3	413249	74.31	0
3	413806	74.41	0
3	414363	74.51	0
3	414920	74.61	0
3	415477	74.71	0
3	416034	74.81	0
3	416591	74.91	0
3	417157	75.01	0
3	417714	75.11	0
3	418271	75.21	0
3	418828	75.31	0
3	419385	75.41	0
3	419942	75.51	0
3	420499	75.61	0
3	421056	75.71	0
3	421613	75.81	0
3	422170	75.91	0
3	422736	76.01	0
3	423293	76.11	0
3	423850	76.21	0
3	424407	76.31	0
3	424964	76.41	0
3	425521	76.51	0
3	426078	76.61	0
3	426635	76.71	0
3	427192	76.81	0
3	427749	76.91	0
3	428315	77.01	0
3	428872	77.11	0
3	429429	77.21	0
3	429986	77.31	0
3	430543	77.41	0
3	431100	77.51	0
3	431657	77.61	0
3	432214	77.71	0
3	432771	77.81	0
3	433328	77.91	0
3	433894	78.01	0
3	434451	78.11	0
3	435008	78.21	0
3	435565	78.31	0
3	436122	78.41	0
3	436679	78.51	0
3	437236	78.61	0
3	437793	78.71	0
3	438350	78.81	0
3	438907	78.91	0
3	439473	79.01	0
3	440030	79.11	0
3	440587	79.21	0
3	441144	79.31	0
3	441701	79.41	0
3	442258	79.51	0
3	442815	79.61	0
3	443372	79.71	0
3	443929	79.81	0
3	444486	79.91	0
3	445052	80.01	0
3	445609	80.11	0
3	446166	80.21	0
3	446723	80.31	0
3	447280	80.41	0
3	447837	80.51	0
3	448394	80.61	0
3	448951	80.71	0
3	449508	80.81	0
3	450065	80.91	0
3	450631	81.01	0
3	451188	81.11	0
3	451745	81.21	0
3	452302	81.31	0
3	452859	81.41	0
3	453416	81.51	0
3	453973	81.61	0
3	454530	81.71	0
3	455087	81.81	0
3	455644	81.91	0
3	456210	82.01	0
3	456767	82.11	0
3	457324	82.21	0
3	457881	82.31	0
3	458438	82.41	0
3	458995	82.51	0
3	459552	82.61	0
3	460109	82.71	0
3	460666	82.81	0
3	461223	82.91	0
3	461789	83.01	0
3	462346	83.11	0
3	462903	83.21	0
3	463460	83.31	0
3	464017	83.41	0
3	464574	83.51	0
3	465131	83.61	0
3	465688	83.71	0
3	466245	83.81	0
3	466802	83.91	0
3	467368	84.01	0
3	467925	84.11	0
3	468482	84.21	0
3	469039	84.31	0
3	469596	84.41	0
3	470153	84.51	0
3	470710	84.61	0
3	471267	84.71	0
3	471824	84.81	0
3	472381	84.91	0
3	472947	85.01	0
3	473504	85.11	0
3	474061	85.21	0
3	474618	85.31	0
3	475175	85.41	0
3	475732	85.51	0
3	476289	85.61	0
3	476846	85.71	0
3	477403	85.81	0
3	477960	85.91	0
3	478526	86.01	0
3	479083	86.11	0
3	479640	86.21	0
3	480197	86.31	0
3	480754	86.41	0
3	481311	86.51	0
3	481868	86.61	0
3	482425	86.71	0
3	482982	86.81	0
3	483539	86.91	0
3	484105	87.01	0
3	484662	87.11	0
3	485219	87.21	0
3	485776	87.31	0
3	486333	87.41	0
3	486890	87.51	0
3	487447	87.61	0
3	488004	87.71	0
3	488561	87.81	0
3	489118	87.91	0
3	489684	88.01	0
3	490241	88.11	0
3	490798	88.21	0
3	491355	88.31	0
3	491912	88.41	0
3	492469	88.51	0
3	493026	88.61	0
3	493583	88.71	0
3	494140	88.81	0
3	494697	88.91	0
3	495263	89.01	0
3	495820	89.11	0
3	496377	89.21	0
3	496934	89.31	0
3	497491	89.41	0
3	498048	89.51	0
3	498605	89.61	0
3	499162	89.71	0
3	499719	89.81	0
3	500276	89.91	0
3	500842	90.01	0
3	501399	90.11	0
3	501956	90.21	0
3	502513	90.31	0
3	503070	90.41	0
3	503627	90.51	0
3	504184	90.61	0
3	504741	90.71	0
3	505298	90.81	0
3	505855	90.91	0
3	506421	91.01	0
3	506978	91.11	0
3	507535	91.21	0
3	508092	91.31	0
3	508649	91.41	0
[...]
116	320806	58	0.024970975877
116	326516	59	0.025074590662
116	332125	60	0.024970951567
116	337734	61	0.024970941315
116	343343	62	0.024970932159
116	348952	63	0.024970923981
116	354648	64	0.025107916691
116	360247	65	0.024970910184
116	365846	66	0.02497090439
116	371445	67	0.024970899228
116	377135	68	0.025087335663
116	382724	69	0.024970890534
116	388313	70	0.024970886892
116	393902	71	0.024970883651
116	399491	72	0.024970880771
116	405816	73	0.02589693528
116	411395	74	0.024970754951
116	416974	75	0.024957830978
116	422553	76	0.024970893914
116	428132	77	0.024970913624
116	433711	78	0.024970877718
116	439290	79	0.024970786662
116	444869	80	0.024970655971
116	450448	81	0.024970500856
116	456027	82	0.024970323213
116	461606	83	0.02497011816
116	467185	84	0.024969894094
116	472764	85	0.024969668009
116	478343	86	0.024969449466
116	483922	87	0.024969241674
116	489501	88	0.024969045265
116	495080	89	0.024968859963
116	500659	90	0.024968685118
116	506238	91	0.024981519983
116	511817	92	0.024968363781
116	517396	93	0.024968215772
116	522975	94	0.024968075244
116	528554	95	0.024967941533
116	534133	96	0.024967814029
116	539712	97	0.02498069215
116	545291	98	0.024967575397
116	550870	99	0.024967463537
116	556449	100	0.024967356217
117	4952	2	0
117	10531	3	0
117	16110	4	0
117	21689	5	0
117	27268	6	0
117	32847	7	0
117	38426	8	0
117	44005	9	0
117	49586	10	0
117	55311	11	0
117	60960	12	0
117	66609	13	0
117	72258	14	0
117	77907	15	0
117	83556	16	0
117	89205	17	0
117	94854	18	0
117	100503	19	0
117	106152	20	0
117	111801	21	0
117	117450	22	0
117	123099	23	0
117	128748	24	0
117	134397	25	0
117	140046	26	0
117	145695	27	0
117	151344	28	0
117	156993	29	0
117	162642	30	0
117	168291	31	0
117	173940	32	0
117	179589	33	0
117	185238	34	0
117	190887	35	0
117	196536	36	0
117	202185	37	0
117	207834	38	0
117	213483	39	0
117	219132	40	0
117	224781	41	0
117	230430	42	0
117	236170	43	0
117	241809	44	0
117	247448	45	0
117	253087	46	0
117	258726	47	0
117	264365	48	0
117	270093	49	0
117	275722	50	0
117	281351	51	0
117	286980	52	0
117	292609	53	0
117	298330	54	0
117	303949	55	0
117	309568	56	0
117	315187	57	0
117	320806	58	0
117	326516	59	0
117	332125	60	0
117	337734	61	0
117	343343	62	0
117	348952	63	0
117	354648	64	0
117	360247	65	0
117	365846	66	0
117	371445	67	0
117	377135	68	0
117	382724	69	0
117	388313	70	0
117	393902	71	0
117	399491	72	0
117	405816	73	0
117	411395	74	0
117	416974	75	0
117	422553	76	0
117	428132	77	0
117	433711	78	0
117	439290	79	0
117	444869	80	0
117	450448	81	0
117	456027	82	0
117	461606	83	0
117	467185	84	0
117	472764	85	0
117	478343	86	0
117	483922	87	0
117	489501	88	0
117	495080	89	0
117	500659	90	0
117	506238	91	0
117	511817	92	0
117	517396	93	0
117	522975	94	0
117	528554	95	0
117	534133	96	0
117	539712	97	0
117	545291	98	0
117	550870	99	0
117	556449	100	0
118	4953	2	6
118	10532	3	6
118	16111	4	6
118	21690	5	6
118	27269	6	6
118	32848	7	6
118	38427	8	6
118	44006	9	6
118	49587	10	6
118	55312	11	6
118	60961	12	6
118	66610	13	6
118	72259	14	6
118	77908	15	6
118	83557	16	6
118	89206	17	6
118	94855	18	6
118	100504	19	6
118	106153	20	6
118	111802	21	6
118	117451	22	6
118	123100	23	6
118	128749	24	6
118	134398	25	6
118	140047	26	6
118	145696	27	6
118	151345	28	6
118	156994	29	6
118	162643	30	6
118	168292	31	6
118	173941	32	6
118	179590	33	6
118	185239	34	6
118	190888	35	6
118	196537	36	6
118	202186	37	6
118	207835	38	6
118	213484	39	6
118	219133	40	6
118	224782	41	6
118	230431	42	6
118	236171	43	6
118	241810	44	6
118	247449	45	6
118	253088	46	6
118	258727	47	6
118	264366	48	6
118	270094	49	6
118	275723	50	6
118	281352	51	6
118	286981	52	6
118	292610	53	6
118	298331	54	6
118	303950	55	6
118	309569	56	6
118	315188	57	6
118	320807	58	6
118	326517	59	6
118	332126	60	6
118	337735	61	6
118	343344	62	6
118	348953	63	6
118	354649	64	6
118	360248	65	6
118	365847	66	6
118	371446	67	6
118	377136	68	6
118	382725	69	6
118	388314	70	6
118	393903	71	6
118	399492	72	6
118	405817	73	6
118	411396	74	6
118	416975	75	6
118	422554	76	6
118	428133	77	6
118	433712	78	6
118	439291	79	6
118	444870	80	6
118	450449	81	6
118	456028	82	6
118	461607	83	6
118	467186	84	6
118	472765	85	6
118	478344	86	6
118	483923	87	6
118	489502	88	6
118	495081	89	6
118	500660	90	6
118	506239	91	6
118	511818	92	6
118	517397	93	6
118	522976	94	6
118	528555	95	6
118	534134	96	6
118	539713	97	6
118	545292	98	6
118	550871	99	6
118	556450	100	6
119	4953	2	0.021651396827
119	10532	3	0.024977796495
119	16111	4	0.024964796568
119	21690	5	0.024977796609
119	27269	6	0.024964796661
119	32848	7	0.024964796688
119	38427	8	0.024977796701
119	44006	9	0.024964796719
119	49587	10	0.02497779671
119	55312	11	0.025009713856
119	60961	12	0.024977758472
119	66610	13	0.024964663281
119	72259	14	0.024964509811
119	77908	15	0.02497730705
119	83557	16	0.024964064936
119	89206	17	0.024976792924
119	94855	18	0.024963499609
119	100504	19	0.024976192545
119	106153	20	0.024962878272
119	111802	21	0.024975562262
119	117451	22	0.024975249032
119	123100	23	0.024961942215
119	128749	24	0.024974644647
119	134398	25	0.024961358492
119	140047	26	0.024974085295
119	145696	27	0.024973826121
119	151345	28	0.024973581594
119	156994	29	0.024960352024
119	162643	30	0.024973137408
119	168292	31	0.024972937557
119	173941	32	0.024972752102
119	179590	33	0.024959580532
119	185239	34	0.024972422267
119	190888	35	0.024972276644
119	196537	36	0.024972142957
119	202186	37	0.024972020498
119	207835	38	0.024971908554
119	213484	39	0.024958806395
119	219133	40	0.024971713333
119	224782	41	0.024971628678
119	230431	42	0.02497155179
119	236171	43	0.025088297413
119	241810	44	0.02495841887
119	247449	45	0.024971361704
119	253088	46	0.02497131004
119	258727	47	0.024971263401
119	264366	48	0.024971221324
119	270094	49	0.025087997538
119	275723	50	0.024971149276
119	281352	51	0.024958118568
119	286981	52	0.024971090974
119	292610	53	0.024971066188
119	298331	54	0.025087764836
119	303950	55	0.02497102399
119	309569	56	0.024971006113
119	315188	57	0.024970990094
119	320807	58	0.024970975764
119	326517	59	0.025074590559
119	332126	60	0.024970951476
119	337735	61	0.024970941231
119	343344	62	0.024970932084
119	348953	63	0.024970923915
119	354649	64	0.025074450966
119	360248	65	0.02497091013
119	365847	66	0.024970904342
119	371446	67	0.024970899184
119	377136	68	0.025120894585
119	382725	69	0.024970890499
119	388314	70	0.024970886862
119	393903	71	0.024970883622
119	399492	72	0.024970880747
119	405817	73	0.025896935073
119	411396	74	0.024970751088
119	416975	75	0.024957822921
119	422554	76	0.024970882538
119	428133	77	0.024970900819
119	433712	78	0.024970865224
119	439291	79	0.024970775411
119	444870	80	0.024970646155
119	450449	81	0.024970492307
119	456028	82	0.024970315707
119	461607	83	0.024970111538
119	467186	84	0.024969888255
119	472765	85	0.024969662883
119	478344	86	0.024969444993
119	483923	87	0.024969237793
119	489502	88	0.024969041922
119	495081	89	0.024968857107
119	500660	90	0.024968682704
119	506239	91	0.024981517968
119	511818	92	0.024968362127
119	517397	93	0.024968214449
119	522976	94	0.024968074216
119	528555	95	0.024967940774
119	534134	96	0.024967813515
119	539713	97	0.024980691858
119	545292	98	0.024967575305
119	550871	99	0.024967463655
119	556450	100	0.024967356495
120	4953	2	0
120	10532	3	0
120	16111	4	0
120	21690	5	0
120	27269	6	0
120	32848	7	0
120	38427	8	0
120	44006	9	0
120	49587	10	0
120	55312	11	0
120	60961	12	0
120	66610	13	0
120	72259	14	0
120	77908	15	0
120	83557	16	0
120	89206	17	0
120	94855	18	0
120	100504	19	0
120	106153	20	0
120	111802	21	0
120	117451	22	0
120	123100	23	0
120	128749	24	0
120	134398	25	0
120	140047	26	0
120	145696	27	0
120	151345	28	0
120	156994	29	0
120	162643	30	0
120	168292	31	0
120	173941	32	0
120	179590	33	0
120	185239	34	0
120	190888	35	0
120	196537	36	0
120	202186	37	0
120	207835	38	0
120	213484	39	0
120	219133	40	0
120	224782	41	0
120	230431	42	0
120	236171	43	0
120	241810	44	0
120	247449	45	0
120	253088	46	0
120	258727	47	0
120	264366	48	0
120	270094	49	0
120	275723	50	0
120	281352	51	0
120	286981	52	0
120	292610	53	0
120	298331	54	0
120	303950	55	0
120	309569	56	0
120	315188	57	0
120	320807	58	0
120	326517	59	0
120	332126	60	0
120	337735	61	0
120	343344	62	0
120	348953	63	0
120	354649	64	0
120	360248	65	0
120	365847	66	0
120	371446	67	0
120	377136	68	0
120	382725	69	0
120	388314	70	0
120	393903	71	0
120	399492	72	0
120	405817	73	0
120	411396	74	0
120	416975	75	0
120	422554	76	0
120	428133	77	0
120	433712	78	0
120	439291	79	0
120	444870	80	0
120	450449	81	0
120	456028	82	0
120	461607	83	0
120	467186	84	0
120	472765	85	0
120	478344	86	0
120	483923	87	0
120	489502	88	0
120	495081	89	0
120	500660	90	0
120	506239	91	0
120	511818	92	0
120	517397	93	0
120	522976	94	0
120	528555	95	0
120	534134	96	0
120	539713	97	0
120	545292	98	0
120	550871	99	0
120	556450	100	0
121	4954	2	7
121	10533	3	7
121	16112	4	7
121	21691	5	7
121	27270	6	7
121	32849	7	7
121	38428	8	7
121	44007	9	7
121	49588	10	7
121	55313	11	7
121	60962	12	7
121	66611	13	7
121	72260	14	7
121	77909	15	7
121	83558	16	7
121	89207	17	7
121	94856	18	7
121	100505	19	7
121	106154	20	7
121	111803	21	7
121	117452	22	7
121	123101	23	7
121	128750	24	7
121	134399	25	7
121	140048	26	7
121	145697	27	7
121	151346	28	7
121	156995	29	7
121	162644	30	7
121	168293	31	7
121	173942	32	7
121	179591	33	7
121	185240	34	7
121	190889	35	7
121	196538	36	7
121	202187	37	7
121	207836	38	7
121	213485	39	7
121	219134	40	7
121	224783	41	7
121	230432	42	7
121	236172	43	7
121	241811	44	7
121	247450	45	7
121	253089	46	7
121	258728	47	7
121	264367	48	7
121	270095	49	7
121	275724	50	7
121	281353	51	7
121	286982	52	7
121	292611	53	7
121	298332	54	7
121	303951	55	7
121	309570	56	7
121	315189	57	7
121	320808	58	7
121	326518	59	7
121	332127	60	7
121	337736	61	7
121	343345	62	7
121	348954	63	7
121	354650	64	7
121	360249	65	7
121	365848	66	7
121	371447	67	7
121	377137	68	7
121	382726	69	7
121	388315	70	7
121	393904	71	7
121	399493	72	7
121	405818	73	7
121	411397	74	7
121	416976	75	7
121	422555	76	7
121	428134	77	7
121	433713	78	7
121	439292	79	7
121	444871	80	7
121	450450	81	7
121	456029	82	7
121	461608	83	7
121	467187	84	7
121	472766	85	7
121	478345	86	7
121	483924	87	7
121	489503	88	7
121	495082	89	7
121	500661	90	7
121	506240	91	7
121	511819	92	7
121	517398	93	7
121	522977	94	7
121	528556	95	7
121	534135	96	7
121	539714	97	7
121	545293	98	7
121	550872	99	7
121	556451	100	7
122	4954	2	0.021651376813
122	10533	3	0.024977796495
122	16112	4	0.024964796569
122	21691	5	0.024977796608
122	27270	6	0.024964796662
122	32849	7	0.024964796687
122	38428	8	0.024977796702
122	44007	9	0.024964796718
122	49588	10	0.02497779671
122	55313	11	0.025009713863
122	60962	12	0.024977758467
122	66611	13	0.024964663238
122	72260	14	0.024964509716
122	77909	15	0.024977306893
122	83558	16	0.024964064707
122	89207	17	0.024976792618
122	94856	18	0.02496349922
122	100505	19	0.024976192073
122	106154	20	0.024962877717
122	111803	21	0.024975561628
122	117452	22	0.024975248328
122	123101	23	0.024961941446
122	128750	24	0.024974643825
122	134399	25	0.024961357625
122	140048	26	0.024974084394
122	145697	27	0.024973825195
122	151346	28	0.024973580654
122	156995	29	0.024960351079
122	162644	30	0.024973136464
122	168293	31	0.024972936625
122	173942	32	0.024972751184
122	179591	33	0.024959579638
122	185240	34	0.024972421398
122	190889	35	0.024972275806
122	196538	36	0.024972142153
122	202187	37	0.024972019728
122	207836	38	0.024971907821
122	213485	39	0.0249588057
122	219134	40	0.024971712677
122	224783	41	0.02497162806
122	230432	42	0.024971551209
122	236172	43	0.025088296869
122	241811	44	0.024958418362
122	247450	45	0.024971361231
122	253089	46	0.024971309601
122	258728	47	0.024971262993
122	264367	48	0.024971220947
122	270095	49	0.02508799719
122	275724	50	0.024971148954
122	281353	51	0.024958118272
122	286982	52	0.024971090703
122	292611	53	0.024971065939
122	298332	54	0.025087764608
122	303951	55	0.024971023781
122	309570	56	0.024971005923
122	315189	57	0.024970989919
122	320808	58	0.024970975605
122	326518	59	0.025074590416
122	332127	60	0.024970951344
122	337736	61	0.024970941112
122	343345	62	0.024970931976
122	348954	63	0.024970923817
122	354650	64	0.025074450877
122	360249	65	0.02497091005
122	365848	66	0.024970904269
122	371447	67	0.024970899118
122	377137	68	0.025087335565
122	382726	69	0.024970890445
122	388315	70	0.024970886813
122	393904	71	0.02497088358
122	399493	72	0.024970880707
122	405818	73	0.025930585383
122	411397	74	0.024970753788
122	416976	75	0.024957829839
122	422555	76	0.024970893411
122	428134	77	0.024970913691
122	433713	78	0.024970878145
122	439292	79	0.024970787342
122	444871	80	0.024970656881
122	450450	81	0.024970501985
122	456029	82	0.024970324545
122	461608	83	0.024970119681
122	467187	84	0.024969895781
122	472766	85	0.024969669847
122	478345	86	0.024969451442
122	483924	87	0.024969243772
122	489503	88	0.024969047477
122	495082	89	0.024968862275
122	500661	90	0.024968687522
122	506240	91	0.024981522471
122	511819	92	0.024968366343
122	517398	93	0.024968218403
122	522977	94	0.024968077936
122	528556	95	0.024967944281
122	534135	96	0.024967816827
122	539714	97	0.024980694995
122	545293	98	0.024967578282
122	550872	99	0.02496746646
122	556451	100	0.024967359173
123	4954	2	0
123	10533	3	0
123	16112	4	0
123	21691	5	0
123	27270	6	0
123	32849	7	0
123	38428	8	0
123	44007	9	0
123	49588	10	0
123	55313	11	0
123	60962	12	0
123	66611	13	0
123	72260	14	0
123	77909	15	0
123	83558	16	0
123	89207	17	0
123	94856	18	0
123	100505	19	0
123	106154	20	0
123	111803	21	0
123	117452	22	0
123	123101	23	0
123	128750	24	0
123	134399	25	0
123	140048	26	0
123	145697	27	0
123	151346	28	0
123	156995	29	0
123	162644	30	0
123	168293	31	0
123	173942	32	0
123	179591	33	0
123	185240	34	0
123	190889	35	0
123	196538	36	0
123	202187	37	0
123	207836	38	0
123	213485	39	0
123	219134	40	0
123	224783	41	0
123	230432	42	0
123	236172	43	0
123	241811	44	0
123	247450	45	0
123	253089	46	0
123	258728	47	0
123	264367	48	0
123	270095	49	0
123	275724	50	0
123	281353	51	0
123	286982	52	0
123	292611	53	0
123	298332	54	0
123	303951	55	0
123	309570	56	0
123	315189	57	0
123	320808	58	0
123	326518	59	0
123	332127	60	0
123	337736	61	0
123	343345	62	0
123	348954	63	0
123	354650	64	0
123	360249	65	0
123	365848	66	0
123	371447	67	0
123	377137	68	0
123	382726	69	0
123	388315	70	0
123	393904	71	0
123	399493	72	0
123	405818	73	0
123	411397	74	0
123	416976	75	0
123	422555	76	0
123	428134	77	0
123	433713	78	0
123	439292	79	0
123	444871	80	0
123	450450	81	0
123	456029	82	0
123	461608	83	0
123	467187	84	0
123	472766	85	0
123	478345	86	0
123	483924	87	0
123	489503	88	0
123	495082	89	0
123	500661	90	0
123	506240	91	0
123	511819	92	0
123	517398	93	0
123	522977	94	0
123	528556	95	0
123	534135	96	0
123	539714	97	0
123	545293	98	0
123	550872	99	0
123	556451	100	0
124	4955	2	8
124	10534	3	8
124	16113	4	8
124	21692	5	8
124	27271	6	8
124	32850	7	8
124	38429	8	8
124	44008	9	8
124	49589	10	8
124	55314	11	8
124	60963	12	8
124	66612	13	8
124	72261	14	8
124	77910	15	8
124	83559	16	8
124	89208	17	8
124	94857	18	8
124	100506	19	8
124	106155	20	8
124	111804	21	8
124	117453	22	8
124	123102	23	8
124	128751	24	8
124	134400	25	8
124	140049	26	8
124	145698	27	8
124	151347	28	8
124	156996	29	8
124	162645	30	8
124	168294	31	8
124	173943	32	8
124	179592	33	8
124	185241	34	8
124	190890	35	8
124	196539	36	8
124	202188	37	8
124	207837	38	8
124	213486	39	8
124	219135	40	8
124	224784	41	8
124	230433	42	8
124	236173	43	8
124	241812	44	8
124	247451	45	8
124	253090	46	8
124	258729	47	8
124	264368	48	8
124	270096	49	8
124	275725	50	8
124	281354	51	8
124	286983	52	8
124	292612	53	8
124	298333	54	8
124	303952	55	8
124	309571	56	8
124	315190	57	8
124	320809	58	8
124	326519	59	8
124	332128	60	8
124	337737	61	8
124	343346	62	8
124	348955	63	8
124	354651	64	8
124	360250	65	8
124	365849	66	8
124	371448	67	8
124	377138	68	8
124	382727	69	8
124	388316	70	8
124	393905	71	8
124	399494	72	8
124	405819	73	8
124	411398	74	8
124	416977	75	8
124	422556	76	8
124	428135	77	8
124	433714	78	8
124	439293	79	8
124	444872	80	8
124	450451	81	8
124	456030	82	8
124	461609	83	8
124	467188	84	8
124	472767	85	8
124	478346	86	8
124	483925	87	8
124	489504	88	8
124	495083	89	8
124	500662	90	8
124	506241	91	8
124	511820	92	8
124	517399	93	8
124	522978	94	8
124	528557	95	8
124	534136	96	8
124	539715	97	8
124	545294	98	8
124	550873	99	8
124	556452	100	8
125	4955	2	0.002817
125	10534	3	0.00313
125	16113	4	0.00313
125	21692	5	0.00313
125	27271	6	0.00313
125	32850	7	0.00313
125	38429	8	0.00313
125	44008	9	0.00313
125	49589	10	0.00313
125	55314	11	0.003179
125	60963	12	0.00313
125	66612	13	0.00313
125	72261	14	0.00313
125	77910	15	0.00313
125	83559	16	0.00313
125	89208	17	0.00313
125	94857	18	0.00313
125	100506	19	0.00313
125	106155	20	0.00313
125	111804	21	0.00313
125	117453	22	0.00313
125	123102	23	0.00313
125	128751	24	0.00313
125	134400	25	0.00313
125	140049	26	0.00313
125	145698	27	0.00313
125	151347	28	0.00313
125	156996	29	0.00313
125	162645	30	0.00313
125	168294	31	0.00313
125	173943	32	0.00313
125	179592	33	0.00313
125	185241	34	0.00313
125	190890	35	0.00313
125	196539	36	0.00313
125	202188	37	0.00313
125	207837	38	0.00313
125	213486	39	0.00313
125	219135	40	0.00313
125	224784	41	0.00313
125	230433	42	0.00313
125	236173	43	0.00313
125	241812	44	0.00313
125	247451	45	0.00313
125	253090	46	0.00313
125	258729	47	0.00313
125	264368	48	0.00313
125	270096	49	0.00313
125	275725	50	0.00313
125	281354	51	0.00313
125	286983	52	0.00313
125	292612	53	0.00313
125	298333	54	0.00313
125	303952	55	0.00313
125	309571	56	0.00313
125	315190	57	0.00313
125	320809	58	0.00313
125	326519	59	0.00313
125	332128	60	0.00313
125	337737	61	0.00313
125	343346	62	0.00313
125	348955	63	0.00313
125	354651	64	0.00313
125	360250	65	0.00313
125	365849	66	0.00313
125	371448	67	0.00313
125	377138	68	0.00313
125	382727	69	0.00313
125	388316	70	0.00313
125	393905	71	0.00313
125	399494	72	0.00313
125	405819	73	0.00313
125	411398	74	0.00313
125	416977	75	0.00313
125	422556	76	0.00313
125	428135	77	0.00313
125	433714	78	0.00313
125	439293	79	0.00313
125	444872	80	0.00313
125	450451	81	0.00313
125	456030	82	0.00313
125	461609	83	0.00313
125	467188	84	0.00313
125	472767	85	0.00313
125	478346	86	0.00313
125	483925	87	0.00313
125	489504	88	0.00313
125	495083	89	0.00313
125	500662	90	0.00313
125	506241	91	0.00313
125	511820	92	0.00313
125	517399	93	0.00313
125	522978	94	0.00313
125	528557	95	0.00313
125	534136	96	0.00313
125	539715	97	0.00313
125	545294	98	0.00313
125	550873	99	0.00313
125	556452	100	0.00313
126	4955	2	0
126	10534	3	0
126	16113	4	0
126	21692	5	0
126	27271	6	0
126	32850	7	0
126	38429	8	0
126	44008	9	0
126	49589	10	0
126	55314	11	0
126	60963	12	0
126	66612	13	0
126	72261	14	0
126	77910	15	0
126	83559	16	0
126	89208	17	0
126	94857	18	0
126	100506	19	0
126	106155	20	0
126	111804	21	0
126	117453	22	0
126	123102	23	0
126	128751	24	0
126	134400	25	0
126	140049	26	0
126	145698	27	0
126	151347	28	0
126	156996	29	0
126	162645	30	0
126	168294	31	0
126	173943	32	0
126	179592	33	0
126	185241	34	0
126	190890	35	0
126	196539	36	0
126	202188	37	0
126	207837	38	0
126	213486	39	0
126	219135	40	0
126	224784	41	0
126	230433	42	0
126	236173	43	0
126	241812	44	0
126	247451	45	0
126	253090	46	0
126	258729	47	0
126	264368	48	0
126	270096	49	0
126	275725	50	0
126	281354	51	0
126	286983	52	0
126	292612	53	0
126	298333	54	0
126	303952	55	0
126	309571	56	0
126	315190	57	0
126	320809	58	0
126	326519	59	0
126	332128	60	0
126	337737	61	0
126	343346	62	0
126	348955	63	0
126	354651	64	0
126	360250	65	0
126	365849	66	0
126	371448	67	0
126	377138	68	0
126	382727	69	0
126	388316	70	0
126	393905	71	0
126	399494	72	0
126	405819	73	0
126	411398	74	0
126	416977	75	0
126	422556	76	0
126	428135	77	0
126	433714	78	0
126	439293	79	0
126	444872	80	0
126	450451	81	0
126	456030	82	0
126	461609	83	0
126	467188	84	0
126	472767	85	0
126	478346	86	0
126	483925	87	0
126	489504	88	0
126	495083	89	0
126	500662	90	0
126	506241	91	0
126	511820	92	0
126	517399	93	0
126	522978	94	0
126	528557	95	0
126	534136	96	0
126	539715	97	0
126	545294	98	0
126	550873	99	0
126	556452	100	0

